*SPEF "ieee 1481-1999"
*DESIGN "pes_pwm"
*DATE "11:11:11 Fri 11 11, 1111"
*VENDOR "OpenRCX"
*PROGRAM "Parallel Extraction"
*VERSION "1.0"
*DESIGN_FLOW "NAME_SCOPE LOCAL" "PIN_CAP NONE"
*DIVIDER /
*DELIMITER :
*BUS_DELIMITER []
*T_UNIT 1 NS
*C_UNIT 1 PF
*R_UNIT 1 OHM
*L_UNIT 1 HENRY

*NAME_MAP
*1 PWM_OUT
*4 clk
*5 decrease_duty
*6 increase_duty
*7 DUTY_CYCLE\[0\]
*8 DUTY_CYCLE\[1\]
*9 DUTY_CYCLE\[2\]
*10 DUTY_CYCLE\[3\]
*11 PWM_DFF1\.Q
*12 PWM_DFF2\.Q
*13 PWM_DFF3\.Q
*14 PWM_DFF4\.Q
*15 _000_
*16 _001_
*17 _002_
*18 _003_
*19 _004_
*20 _005_
*21 _006_
*22 _007_
*23 _008_
*24 _009_
*25 _010_
*26 _038_
*27 _039_
*28 _040_
*29 _041_
*30 _042_
*31 _043_
*32 _044_
*33 _045_
*34 _046_
*35 _047_
*36 _048_
*37 _049_
*38 _050_
*39 _051_
*40 _052_
*41 _053_
*42 _054_
*43 _055_
*44 _056_
*45 _057_
*46 _058_
*47 _059_
*48 _060_
*49 _061_
*50 _062_
*51 _063_
*52 _064_
*53 _065_
*54 _066_
*55 _067_
*56 _068_
*57 _069_
*58 _070_
*59 _071_
*60 _072_
*61 _073_
*62 _074_
*63 _075_
*64 _076_
*65 _077_
*66 _078_
*67 _079_
*68 _080_
*69 _081_
*70 _082_
*71 _083_
*72 _084_
*73 _085_
*74 _086_
*75 _087_
*76 _088_
*77 _089_
*78 _090_
*79 _091_
*80 _092_
*81 _093_
*82 _094_
*83 _095_
*84 _096_
*85 _097_
*86 _098_
*87 _099_
*88 _100_
*89 _101_
*90 _102_
*91 _103_
*92 _104_
*93 _105_
*94 _106_
*95 _107_
*96 _108_
*97 _109_
*98 _110_
*99 _111_
*100 _112_
*101 _113_
*102 clknet_0_clk
*103 clknet_2_0__leaf_clk
*104 clknet_2_1__leaf_clk
*105 clknet_2_2__leaf_clk
*106 clknet_2_3__leaf_clk
*107 counter_PWM\[0\]
*108 counter_PWM\[1\]
*109 counter_PWM\[2\]
*110 counter_PWM\[3\]
*111 counter_debounce\[0\]
*112 counter_debounce\[10\]
*113 counter_debounce\[11\]
*114 counter_debounce\[12\]
*115 counter_debounce\[13\]
*116 counter_debounce\[14\]
*117 counter_debounce\[15\]
*118 counter_debounce\[16\]
*119 counter_debounce\[17\]
*120 counter_debounce\[18\]
*121 counter_debounce\[19\]
*122 counter_debounce\[1\]
*123 counter_debounce\[20\]
*124 counter_debounce\[21\]
*125 counter_debounce\[22\]
*126 counter_debounce\[23\]
*127 counter_debounce\[24\]
*128 counter_debounce\[25\]
*129 counter_debounce\[26\]
*130 counter_debounce\[27\]
*131 counter_debounce\[2\]
*132 counter_debounce\[3\]
*133 counter_debounce\[4\]
*134 counter_debounce\[5\]
*135 counter_debounce\[6\]
*136 counter_debounce\[7\]
*137 counter_debounce\[8\]
*138 counter_debounce\[9\]
*139 net1
*140 net10
*141 net11
*142 net12
*143 net13
*144 net14
*145 net15
*146 net16
*147 net17
*148 net18
*149 net19
*150 net2
*151 net20
*152 net21
*153 net22
*154 net23
*155 net24
*156 net25
*157 net26
*158 net27
*159 net28
*160 net29
*161 net3
*162 net30
*163 net31
*164 net32
*165 net33
*166 net34
*167 net35
*168 net36
*169 net37
*170 net38
*171 net39
*172 net4
*173 net40
*174 net41
*175 net42
*176 net43
*177 net44
*178 net5
*179 net6
*180 net7
*181 net8
*182 net9
*183 FILLER_0_0_100
*184 FILLER_0_0_113
*185 FILLER_0_0_50
*186 FILLER_0_0_54
*187 FILLER_0_0_60
*188 FILLER_0_0_78
*189 FILLER_0_0_88
*190 FILLER_0_0_9
*191 FILLER_0_10_101
*192 FILLER_0_10_113
*193 FILLER_0_10_121
*194 FILLER_0_10_19
*195 FILLER_0_10_27
*196 FILLER_0_10_29
*197 FILLER_0_10_33
*198 FILLER_0_10_38
*199 FILLER_0_10_42
*200 FILLER_0_10_80
*201 FILLER_0_11_110
*202 FILLER_0_11_113
*203 FILLER_0_11_121
*204 FILLER_0_11_3
*205 FILLER_0_11_76
*206 FILLER_0_11_98
*207 FILLER_0_12_103
*208 FILLER_0_12_115
*209 FILLER_0_12_123
*210 FILLER_0_12_14
*211 FILLER_0_12_22
*212 FILLER_0_12_3
*213 FILLER_0_12_45
*214 FILLER_0_12_69
*215 FILLER_0_12_7
*216 FILLER_0_12_79
*217 FILLER_0_12_83
*218 FILLER_0_12_91
*219 FILLER_0_13_106
*220 FILLER_0_13_113
*221 FILLER_0_13_121
*222 FILLER_0_13_15
*223 FILLER_0_13_21
*224 FILLER_0_13_3
*225 FILLER_0_13_60
*226 FILLER_0_13_70
*227 FILLER_0_13_82
*228 FILLER_0_13_94
*229 FILLER_0_14_109
*230 FILLER_0_14_11
*231 FILLER_0_14_121
*232 FILLER_0_14_29
*233 FILLER_0_14_3
*234 FILLER_0_14_35
*235 FILLER_0_14_76
*236 FILLER_0_14_85
*237 FILLER_0_14_97
*238 FILLER_0_15_105
*239 FILLER_0_15_111
*240 FILLER_0_15_113
*241 FILLER_0_15_121
*242 FILLER_0_15_15
*243 FILLER_0_15_23
*244 FILLER_0_15_3
*245 FILLER_0_15_45
*246 FILLER_0_15_49
*247 FILLER_0_15_53
*248 FILLER_0_15_57
*249 FILLER_0_15_69
*250 FILLER_0_15_81
*251 FILLER_0_15_93
*252 FILLER_0_16_109
*253 FILLER_0_16_121
*254 FILLER_0_16_15
*255 FILLER_0_16_27
*256 FILLER_0_16_29
*257 FILLER_0_16_3
*258 FILLER_0_16_41
*259 FILLER_0_16_58
*260 FILLER_0_16_62
*261 FILLER_0_16_79
*262 FILLER_0_16_83
*263 FILLER_0_16_85
*264 FILLER_0_16_97
*265 FILLER_0_17_109
*266 FILLER_0_17_113
*267 FILLER_0_17_121
*268 FILLER_0_17_15
*269 FILLER_0_17_27
*270 FILLER_0_17_3
*271 FILLER_0_17_35
*272 FILLER_0_17_85
*273 FILLER_0_17_97
*274 FILLER_0_18_109
*275 FILLER_0_18_121
*276 FILLER_0_18_15
*277 FILLER_0_18_27
*278 FILLER_0_18_29
*279 FILLER_0_18_3
*280 FILLER_0_18_85
*281 FILLER_0_18_97
*282 FILLER_0_19_101
*283 FILLER_0_19_109
*284 FILLER_0_19_113
*285 FILLER_0_19_121
*286 FILLER_0_19_15
*287 FILLER_0_19_27
*288 FILLER_0_19_3
*289 FILLER_0_19_54
*290 FILLER_0_19_57
*291 FILLER_0_19_77
*292 FILLER_0_19_89
*293 FILLER_0_1_104
*294 FILLER_0_1_113
*295 FILLER_0_1_121
*296 FILLER_0_1_3
*297 FILLER_0_1_65
*298 FILLER_0_1_69
*299 FILLER_0_1_92
*300 FILLER_0_20_109
*301 FILLER_0_20_113
*302 FILLER_0_20_15
*303 FILLER_0_20_27
*304 FILLER_0_20_29
*305 FILLER_0_20_3
*306 FILLER_0_20_44
*307 FILLER_0_20_48
*308 FILLER_0_20_55
*309 FILLER_0_20_57
*310 FILLER_0_20_64
*311 FILLER_0_20_76
*312 FILLER_0_20_85
*313 FILLER_0_20_97
*314 FILLER_0_2_102
*315 FILLER_0_2_114
*316 FILLER_0_2_122
*317 FILLER_0_2_27
*318 FILLER_0_2_43
*319 FILLER_0_2_73
*320 FILLER_0_2_82
*321 FILLER_0_2_91
*322 FILLER_0_3_105
*323 FILLER_0_3_111
*324 FILLER_0_3_113
*325 FILLER_0_3_121
*326 FILLER_0_3_3
*327 FILLER_0_3_74
*328 FILLER_0_4_100
*329 FILLER_0_4_112
*330 FILLER_0_4_19
*331 FILLER_0_4_64
*332 FILLER_0_5_102
*333 FILLER_0_5_110
*334 FILLER_0_5_113
*335 FILLER_0_5_121
*336 FILLER_0_5_3
*337 FILLER_0_5_69
*338 FILLER_0_5_86
*339 FILLER_0_5_9
*340 FILLER_0_6_113
*341 FILLER_0_6_121
*342 FILLER_0_6_3
*343 FILLER_0_6_82
*344 FILLER_0_6_85
*345 FILLER_0_7_111
*346 FILLER_0_7_113
*347 FILLER_0_7_121
*348 FILLER_0_7_3
*349 FILLER_0_7_73
*350 FILLER_0_8_10
*351 FILLER_0_8_109
*352 FILLER_0_8_121
*353 FILLER_0_8_3
*354 FILLER_0_8_34
*355 FILLER_0_8_85
*356 FILLER_0_8_97
*357 FILLER_0_9_110
*358 FILLER_0_9_113
*359 FILLER_0_9_121
*360 FILLER_0_9_3
*361 FILLER_0_9_52
*362 FILLER_0_9_9
*363 PHY_0
*364 PHY_1
*365 PHY_10
*366 PHY_11
*367 PHY_12
*368 PHY_13
*369 PHY_14
*370 PHY_15
*371 PHY_16
*372 PHY_17
*373 PHY_18
*374 PHY_19
*375 PHY_2
*376 PHY_20
*377 PHY_21
*378 PHY_22
*379 PHY_23
*380 PHY_24
*381 PHY_25
*382 PHY_26
*383 PHY_27
*384 PHY_28
*385 PHY_29
*386 PHY_3
*387 PHY_30
*388 PHY_31
*389 PHY_32
*390 PHY_33
*391 PHY_34
*392 PHY_35
*393 PHY_36
*394 PHY_37
*395 PHY_38
*396 PHY_39
*397 PHY_4
*398 PHY_40
*399 PHY_41
*400 PHY_5
*401 PHY_6
*402 PHY_7
*403 PHY_8
*404 PHY_9
*405 TAP_42
*406 TAP_43
*407 TAP_44
*408 TAP_45
*409 TAP_46
*410 TAP_47
*411 TAP_48
*412 TAP_49
*413 TAP_50
*414 TAP_51
*415 TAP_52
*416 TAP_53
*417 TAP_54
*418 TAP_55
*419 TAP_56
*420 TAP_57
*421 TAP_58
*422 TAP_59
*423 TAP_60
*424 TAP_61
*425 TAP_62
*426 TAP_63
*427 TAP_64
*428 TAP_65
*429 TAP_66
*430 TAP_67
*431 TAP_68
*432 TAP_69
*433 TAP_70
*434 TAP_71
*435 TAP_72
*436 TAP_73
*437 TAP_74
*438 TAP_75
*439 TAP_76
*440 TAP_77
*441 TAP_78
*442 TAP_79
*443 TAP_80
*444 TAP_81
*445 TAP_82
*446 TAP_83
*447 TAP_84
*448 TAP_85
*449 TAP_86
*450 TAP_87
*451 _114_
*452 _115_
*453 _116_
*454 _117_
*455 _118_
*456 _119_
*457 _120_
*458 _121_
*459 _122_
*460 _123_
*461 _124_
*462 _125_
*463 _126_
*464 _127_
*465 _128_
*466 _129_
*467 _130_
*468 _131_
*469 _132_
*470 _133_
*471 _134_
*472 _135_
*473 _136_
*474 _137_
*475 _138_
*476 _139_
*477 _140_
*478 _141_
*479 _142_
*480 _143_
*481 _144_
*482 _145_
*483 _146_
*484 _147_
*485 _148_
*486 _149_
*487 _150_
*488 _151_
*489 _152_
*490 _153_
*491 _154_
*492 _155_
*493 _156_
*494 _157_
*495 _158_
*496 _159_
*497 _160_
*498 _161_
*499 _162_
*500 _163_
*501 _164_
*502 _165_
*503 _166_
*504 _167_
*505 _168_
*506 _169_
*507 _170_
*508 _171_
*509 _172_
*510 _173_
*511 _174_
*512 _175_
*513 _176_
*514 _177_
*515 _178_
*516 _179_
*517 _180_
*518 _181_
*519 _182_
*520 _183_
*521 _184_
*522 _185_
*523 _186_
*524 _187_
*525 _188_
*526 _189_
*527 _190_
*528 _191_
*529 _192_
*530 _193_
*531 _194_
*532 _195_
*533 _196_
*534 _197_
*535 _198_
*536 _199_
*537 _200_
*538 _201_
*539 _202_
*540 _203_
*541 _204_
*542 _205_
*543 _206_
*544 _207_
*545 _208_
*546 _209_
*547 _210_
*548 _211_
*549 _212_
*550 _213_
*551 _213__31
*552 _214_
*553 _214__30
*554 _215_
*555 _215__29
*556 _216_
*557 _216__28
*558 _217_
*559 _217__27
*560 _218_
*561 _218__26
*562 _219_
*563 _219__25
*564 _220_
*565 _220__24
*566 _221_
*567 _221__23
*568 _222_
*569 _222__22
*570 _223_
*571 _223__21
*572 _224_
*573 _224__20
*574 _225_
*575 _225__19
*576 _226_
*577 _226__18
*578 _227_
*579 _227__17
*580 _228_
*581 _228__16
*582 _229_
*583 _229__15
*584 _230_
*585 _230__14
*586 _231_
*587 _231__13
*588 _232_
*589 _232__12
*590 _233_
*591 _233__11
*592 _234_
*593 _234__10
*594 _235_
*595 _235__9
*596 _236_
*597 _236__8
*598 _237_
*599 _237__7
*600 _238_
*601 _238__6
*602 _239_
*603 _239__5
*604 _240_
*605 _241_
*606 clkbuf_0_clk
*607 clkbuf_2_0__f_clk
*608 clkbuf_2_1__f_clk
*609 clkbuf_2_2__f_clk
*610 clkbuf_2_3__f_clk
*611 hold1
*612 hold10
*613 hold11
*614 hold12
*615 hold13
*616 hold2
*617 hold3
*618 hold4
*619 hold5
*620 hold6
*621 hold7
*622 hold8
*623 hold9
*624 input1
*625 input2
*626 max_cap4
*627 output3

*PORTS
PWM_OUT O
clk I
decrease_duty I
increase_duty I

*D_NET *1 0.00142033
*CONN
*P PWM_OUT O
*I *627:X O *D sky130_fd_sc_hd__clkbuf_4
*CAP
1 PWM_OUT 0.000710163
2 *627:X 0.000710163
*RES
1 *627:X PWM_OUT 27.2821 
*END

*D_NET *4 0.00715476
*CONN
*P clk I
*I *606:A I *D sky130_fd_sc_hd__clkbuf_16
*CAP
1 clk 0.00157783
2 *606:A 0.00115622
3 *4:15 0.00273405
4 *606:A *462:A 0
5 *606:A *463:A 0.000243456
6 *606:A *463:B 7.74068e-05
7 *606:A *535:A 0.00015234
8 *606:A *558:D 0
9 *606:A *596:D 0.000552333
10 *606:A *602:D 0.000150773
11 *606:A *78:10 0.000242913
12 *606:A *106:60 0
13 *606:A *106:95 0
14 *606:A *120:12 0.000267438
*RES
1 clk *4:15 28.5021 
2 *4:15 *606:A 40.6393 
*END

*D_NET *5 0.0014545
*CONN
*P decrease_duty I
*I *624:A I *D sky130_fd_sc_hd__clkbuf_1
*CAP
1 decrease_duty 0.00072725
2 *624:A 0.00072725
*RES
1 decrease_duty *624:A 27.9964 
*END

*D_NET *6 0.00114851
*CONN
*P increase_duty I
*I *625:A I *D sky130_fd_sc_hd__clkbuf_1
*CAP
1 increase_duty 0.000574253
2 *625:A 0.000574253
*RES
1 increase_duty *625:A 26.9411 
*END

*D_NET *7 0.00897919
*CONN
*I *619:A I *D sky130_fd_sc_hd__dlygate4sd3_1
*I *501:B I *D sky130_fd_sc_hd__nand2_1
*I *516:B1 I *D sky130_fd_sc_hd__a22oi_2
*I *504:B1 I *D sky130_fd_sc_hd__a21o_1
*I *456:A2 I *D sky130_fd_sc_hd__a22o_1
*I *493:A1 I *D sky130_fd_sc_hd__o31a_1
*I *544:Q O *D sky130_fd_sc_hd__dfxtp_2
*CAP
1 *619:A 0.000105481
2 *501:B 2.80869e-05
3 *516:B1 8.78026e-05
4 *504:B1 0.000443465
5 *456:A2 0.000296347
6 *493:A1 1.40355e-05
7 *544:Q 4.09593e-05
8 *7:67 0.000124198
9 *7:33 0.00148996
10 *7:29 0.000976677
11 *7:14 0.000770285
12 *7:6 0.000684468
13 *456:A2 *456:B1 2.50173e-05
14 *456:A2 *456:B2 0.000169061
15 *456:A2 *499:A2 1.95332e-05
16 *456:A2 *499:B1 4.39197e-05
17 *456:A2 *514:A2 1.19813e-05
18 *456:A2 *611:A 8.43785e-05
19 *456:A2 *8:25 0
20 *456:A2 *10:49 0.000110112
21 *456:A2 *91:28 3.87621e-05
22 *456:A2 *110:61 1.18608e-05
23 *493:A1 *494:D 5.52302e-05
24 *493:A1 *515:C 6.05161e-06
25 *493:A1 *46:36 2.28598e-05
26 *501:B *516:B2 6.05161e-06
27 *501:B *526:B 5.33005e-05
28 *504:B1 *485:A 1.32552e-05
29 *504:B1 *504:A1 7.83814e-05
30 *504:B1 *504:A2 0.000787556
31 *516:B1 *516:B2 0.000213205
32 *516:B1 *526:C 5.05835e-05
33 *516:B1 *545:CLK 0.000149372
34 *619:A *497:B 3.47641e-06
35 *619:A *9:63 2.83284e-06
36 *619:A *9:74 0
37 *619:A *50:12 7.58841e-05
38 *619:A *52:20 2.37011e-05
39 *7:6 *522:B1 1.58163e-05
40 *7:14 *495:A2 1.26641e-05
41 *7:14 *511:B 1.25459e-05
42 *7:14 *516:A1 4.13589e-05
43 *7:14 *522:B1 0.000115692
44 *7:14 *10:30 0.00015157
45 *7:14 *10:39 4.99283e-06
46 *7:14 *50:12 0
47 *7:14 *70:12 0.000119461
48 *7:14 *104:32 4.27842e-06
49 *7:29 *495:A2 8.23597e-06
50 *7:29 *10:45 0.000309893
51 *7:33 *528:B 0
52 *7:33 *10:45 0.00103418
53 *7:67 *516:B2 1.08716e-05
54 *7:67 *526:C 1.94945e-05
*RES
1 *544:Q *7:6 9.83571 
2 *7:6 *7:14 13.9286 
3 *7:14 *493:A1 14.3357 
4 *7:14 *7:29 4.23825 
5 *7:29 *7:33 5.11453 
6 *7:33 *456:A2 21.3 
7 *7:33 *504:B1 22.9786 
8 *7:29 *7:67 3.68679 
9 *7:67 *516:B1 16.6571 
10 *7:67 *501:B 14.3357 
11 *7:6 *619:A 20.2464 
*END

*D_NET *8 0.0146437
*CONN
*I *491:B I *D sky130_fd_sc_hd__or2_1
*I *503:B I *D sky130_fd_sc_hd__nand2_1
*I *516:A2 I *D sky130_fd_sc_hd__a22oi_2
*I *502:A1 I *D sky130_fd_sc_hd__a21o_1
*I *505:C I *D sky130_fd_sc_hd__and3_1
*I *454:A I *D sky130_fd_sc_hd__or2_1
*I *456:B2 I *D sky130_fd_sc_hd__a22o_1
*I *499:B1 I *D sky130_fd_sc_hd__a211oi_1
*I *545:Q O *D sky130_fd_sc_hd__dfxtp_2
*CAP
1 *491:B 0.000104742
2 *503:B 0.000907104
3 *516:A2 4.41509e-05
4 *502:A1 7.9024e-05
5 *505:C 0
6 *454:A 0.0010161
7 *456:B2 0.000267503
8 *499:B1 0.000389757
9 *545:Q 0
10 *8:108 0.00179579
11 *8:91 0.00125234
12 *8:68 0.000716475
13 *8:61 0.00025806
14 *8:42 0.00106095
15 *8:25 0.000415318
16 *8:4 0.000537572
17 *454:A *480:A 0.000117642
18 *454:A *480:B 0.000549543
19 *454:A *483:A 1.99128e-05
20 *454:A *483:B 3.14003e-05
21 *454:A *505:A 5.49995e-05
22 *454:A *506:A3 7.00065e-05
23 *454:A *540:D 3.85127e-05
24 *454:A *541:CLK 0.000352148
25 *454:A *616:A 2.85234e-05
26 *454:A *107:10 2.59761e-05
27 *454:A *107:20 2.18021e-05
28 *454:A *108:6 5.33005e-05
29 *454:A *108:8 0.000267887
30 *454:A *108:48 0
31 *456:B2 *481:A2 6.041e-06
32 *456:B2 *499:A1 7.58841e-05
33 *456:B2 *611:A 2.09722e-05
34 *456:B2 *91:28 3.24049e-05
35 *456:B2 *110:61 2.05509e-05
36 *491:B *520:A2 4.9305e-05
37 *491:B *104:73 7.99059e-05
38 *499:B1 *499:A1 9.41642e-05
39 *499:B1 *499:A2 0
40 *499:B1 *499:C1 5.33005e-05
41 *499:B1 *504:A1 9.90431e-05
42 *499:B1 *510:C 0.000240184
43 *499:B1 *523:D 1.18064e-05
44 *499:B1 *103:71 0.000215291
45 *502:A1 *505:B 8.15384e-05
46 *502:A1 *506:A2 7.54868e-05
47 *502:A1 *91:28 1.59373e-05
48 *503:B *503:A 0.000454607
49 *503:B *520:A2 1.00477e-05
50 *503:B *521:D 4.38088e-05
51 *503:B *531:A1 0.000260204
52 *503:B *532:S 0.000245673
53 *503:B *10:20 7.6644e-05
54 *503:B *104:73 3.54142e-05
55 *503:B *172:18 1.04707e-05
56 *516:A2 *79:10 2.33472e-05
57 *8:25 *499:A1 0.000194802
58 *8:25 *504:A1 5.52238e-05
59 *8:25 *611:A 1.70057e-05
60 *8:61 *505:A 6.48489e-05
61 *8:68 *505:A 0.000292157
62 *8:91 *505:A 9.41642e-05
63 *8:91 *516:A1 7.17614e-05
64 *8:91 *526:B 5.66146e-05
65 *8:91 *526:C 0.000288793
66 *8:91 *526:D 9.45048e-06
67 *8:91 *70:12 4.45361e-05
68 *8:91 *79:10 0.000194268
69 *8:108 *496:B 1.58163e-05
70 *8:108 *496:C 2.42516e-05
71 *8:108 *496:D 4.96113e-05
72 *8:108 *11:36 4.24382e-05
73 *8:108 *11:40 2.68642e-05
74 *8:108 *11:111 2.81855e-05
75 *8:108 *51:58 5.38444e-06
76 *8:108 *52:14 2.59355e-05
77 *8:108 *79:10 2.00203e-05
78 *456:A2 *456:B2 0.000169061
79 *456:A2 *499:B1 4.39197e-05
80 *456:A2 *8:25 0
*RES
1 *545:Q *8:4 9.3 
2 *8:4 *499:B1 26.0857 
3 *8:4 *8:25 7.58929 
4 *8:25 *456:B2 18.4607 
5 *8:25 *8:42 4.5 
6 *8:42 *454:A 37.2821 
7 *8:42 *8:61 0.651786 
8 *8:61 *505:C 9.3 
9 *8:61 *8:68 2.88393 
10 *8:68 *502:A1 19.8714 
11 *8:68 *8:91 9.14286 
12 *8:91 *516:A2 10.4786 
13 *8:91 *8:108 14.1964 
14 *8:108 *503:B 33.1922 
15 *8:108 *491:B 16.05 
*END

*D_NET *9 0.0116509
*CONN
*I *519:A1 I *D sky130_fd_sc_hd__o21a_1
*I *513:A1_N I *D sky130_fd_sc_hd__o2bb2ai_2
*I *491:A I *D sky130_fd_sc_hd__or2_1
*I *620:A I *D sky130_fd_sc_hd__dlygate4sd3_1
*I *499:A1 I *D sky130_fd_sc_hd__a211oi_1
*I *457:A1 I *D sky130_fd_sc_hd__a22o_1
*I *458:A2 I *D sky130_fd_sc_hd__o221a_1
*I *546:Q O *D sky130_fd_sc_hd__dfxtp_2
*CAP
1 *519:A1 8.69917e-05
2 *513:A1_N 0.000421039
3 *491:A 2.17614e-05
4 *620:A 0
5 *499:A1 0.000756903
6 *457:A1 0
7 *458:A2 0.000266433
8 *546:Q 0.000327561
9 *9:74 0.000816806
10 *9:70 0.000480083
11 *9:63 0.000144246
12 *9:16 0.00191653
13 *9:10 0.00134592
14 *458:A2 *452:A 0.000185643
15 *458:A2 *454:B 1.21258e-05
16 *458:A2 *457:A2 0.000136029
17 *458:A2 *457:B1 0.000112609
18 *458:A2 *487:A1 0.000101162
19 *458:A2 *88:10 6.54117e-05
20 *458:A2 *88:16 1.98839e-05
21 *458:A2 *107:39 1.21955e-05
22 *491:A *493:B1 9.71197e-05
23 *491:A *494:A 9.71197e-05
24 *499:A1 *457:A2 9.54798e-06
25 *499:A1 *457:B2 7.89362e-05
26 *499:A1 *472:B 0.000233
27 *499:A1 *499:C1 4.83349e-05
28 *499:A1 *504:A1 0.000319991
29 *499:A1 *510:B 3.69865e-05
30 *499:A1 *550:CLK 1.0609e-05
31 *499:A1 *58:16 0.000108125
32 *499:A1 *81:26 8.27682e-05
33 *499:A1 *102:27 0
34 *499:A1 *103:71 7.01717e-05
35 *513:A1_N *513:A2_N 2.06178e-05
36 *513:A1_N *529:D 0
37 *513:A1_N *10:115 8.30584e-05
38 *513:A1_N *63:12 0.000181959
39 *513:A1_N *104:73 7.11433e-05
40 *519:A1 *10:20 6.05161e-06
41 *519:A1 *52:82 4.35597e-05
42 *519:A1 *104:58 9.41642e-05
43 *9:10 *497:B 0
44 *9:10 *507:A 4.15914e-05
45 *9:10 *531:A2 0
46 *9:10 *547:D 0
47 *9:16 *458:B1 1.40357e-05
48 *9:16 *58:16 0.000340901
49 *9:16 *67:18 6.39533e-05
50 *9:16 *68:18 0.00097677
51 *9:63 *104:58 0.000269463
52 *9:70 *104:58 5.49489e-05
53 *9:74 *508:A 0
54 *9:74 *520:B1 1.66787e-05
55 *9:74 *522:A1_N 0.000122765
56 *9:74 *531:A2 0.000141863
57 *9:74 *10:115 2.21179e-05
58 *9:74 *11:34 0.000145484
59 *9:74 *104:71 2.97869e-05
60 *9:74 *104:73 0.000120226
61 *456:B2 *499:A1 7.58841e-05
62 *499:B1 *499:A1 9.41642e-05
63 *619:A *9:63 2.83284e-06
64 *619:A *9:74 0
65 *8:25 *499:A1 0.000194802
*RES
1 *546:Q *9:10 18.6661 
2 *9:10 *9:16 9.38933 
3 *9:16 *458:A2 19.4964 
4 *9:16 *457:A1 13.8 
5 *9:16 *499:A1 30.2286 
6 *9:10 *9:63 7.36607 
7 *9:63 *620:A 9.3 
8 *9:63 *9:70 0.535714 
9 *9:70 *9:74 12.2143 
10 *9:74 *491:A 14.7464 
11 *9:74 *513:A1_N 20.3714 
12 *9:70 *519:A1 11.0679 
*END

*D_NET *10 0.0191648
*CONN
*I *521:B I *D sky130_fd_sc_hd__nand4_1
*I *495:A2 I *D sky130_fd_sc_hd__a21oi_4
*I *527:B1 I *D sky130_fd_sc_hd__o21a_1
*I *529:C I *D sky130_fd_sc_hd__nor4_1
*I *520:B1 I *D sky130_fd_sc_hd__a31o_1
*I *499:A2 I *D sky130_fd_sc_hd__a211oi_1
*I *458:B1 I *D sky130_fd_sc_hd__o221a_1
*I *459:A2 I *D sky130_fd_sc_hd__a21o_1
*I *493:A2 I *D sky130_fd_sc_hd__o31a_1
*I *547:Q O *D sky130_fd_sc_hd__dfxtp_4
*CAP
1 *521:B 0
2 *495:A2 0.000170593
3 *527:B1 0.000571154
4 *529:C 0
5 *520:B1 0.000558587
6 *499:A2 0.000275046
7 *458:B1 0.00048188
8 *459:A2 4.37033e-05
9 *493:A2 0
10 *547:Q 0.000435471
11 *10:115 0.00073466
12 *10:90 0.00129776
13 *10:49 0.00105995
14 *10:45 0.00190138
15 *10:41 0.00166763
16 *10:39 0.000179709
17 *10:30 0.000714686
18 *10:20 0.00114104
19 *458:B1 *458:B2 6.46173e-05
20 *458:B1 *459:A1 0.000128496
21 *458:B1 *459:B1 4.53889e-05
22 *458:B1 *482:B 0
23 *458:B1 *484:B 0.000137671
24 *458:B1 *487:A1 8.40034e-05
25 *458:B1 *58:16 0.00013078
26 *458:B1 *107:39 6.77266e-05
27 *459:A2 *459:A1 0.000139913
28 *459:A2 *459:B1 4.53889e-05
29 *495:A2 *495:A1 0.000103078
30 *495:A2 *500:C 6.09572e-05
31 *495:A2 *510:A 7.3237e-05
32 *495:A2 *515:D 0
33 *495:A2 *45:59 0
34 *495:A2 *45:67 0.000155196
35 *499:A2 *483:A 0
36 *499:A2 *523:C 4.65855e-05
37 *499:A2 *523:D 4.06782e-05
38 *499:A2 *528:A 1.00887e-05
39 *499:A2 *528:B 1.68624e-05
40 *499:A2 *126:10 9.80405e-05
41 *520:B1 *494:A 0.000214761
42 *520:B1 *508:A 1.15281e-05
43 *520:B1 *509:A 8.44104e-05
44 *520:B1 *520:A1 4.78692e-06
45 *520:B1 *47:6 9.63157e-05
46 *520:B1 *51:58 1.8461e-05
47 *520:B1 *172:18 7.83587e-05
48 *527:B1 *479:A 0.000143633
49 *527:B1 *490:A 4.6025e-06
50 *527:B1 *512:A 0.000286738
51 *527:B1 *513:B1 1.16254e-05
52 *527:B1 *513:B2 0.000362794
53 *527:B1 *527:A2 0.000135521
54 *527:B1 *529:A 0
55 *527:B1 *530:A1 2.76585e-05
56 *527:B1 *530:A2 7.48301e-06
57 *527:B1 *539:CLK 5.49544e-05
58 *527:B1 *13:12 5.65899e-05
59 *527:B1 *38:27 5.4923e-05
60 *527:B1 *63:12 6.94952e-05
61 *527:B1 *104:84 0.000173332
62 *10:20 *503:A 0
63 *10:20 *521:D 0
64 *10:20 *530:B2 1.40415e-05
65 *10:20 *531:A1 7.6644e-05
66 *10:20 *547:CLK 4.11143e-05
67 *10:20 *548:CLK 2.16833e-05
68 *10:20 *11:24 0.0004625
69 *10:20 *52:82 6.46289e-06
70 *10:20 *104:71 9.00971e-05
71 *10:20 *104:73 1.55857e-05
72 *10:30 *495:A1 4.6025e-06
73 *10:30 *522:B1 0.000374966
74 *10:30 *522:B2 0.000139293
75 *10:30 *531:A2 7.59753e-06
76 *10:30 *11:24 9.41642e-05
77 *10:30 *11:34 0.000135028
78 *10:30 *11:52 0
79 *10:30 *50:12 0
80 *10:30 *50:40 0.000314114
81 *10:30 *79:10 0
82 *10:39 *495:A1 9.59532e-06
83 *10:45 *514:B1 0
84 *10:45 *528:B 0
85 *10:45 *67:18 0
86 *10:49 *481:A1 9.91358e-05
87 *10:49 *481:B1 0.000193734
88 *10:49 *483:A 0
89 *10:49 *484:B 0.00025704
90 *10:49 *616:A 3.63219e-05
91 *10:49 *110:29 0.000195555
92 *10:90 *527:A2 0
93 *10:90 *51:35 7.26275e-05
94 *10:115 *508:A 5.317e-05
95 *10:115 *529:D 0
96 *456:A2 *499:A2 1.95332e-05
97 *456:A2 *10:49 0.000110112
98 *499:B1 *499:A2 0
99 *503:B *10:20 7.6644e-05
100 *513:A1_N *10:115 8.30584e-05
101 *519:A1 *10:20 6.05161e-06
102 *7:14 *495:A2 1.26641e-05
103 *7:14 *10:30 0.00015157
104 *7:14 *10:39 4.99283e-06
105 *7:29 *495:A2 8.23597e-06
106 *7:29 *10:45 0.000309893
107 *7:33 *10:45 0.00103418
108 *9:16 *458:B1 1.40357e-05
109 *9:74 *520:B1 1.66787e-05
110 *9:74 *10:115 2.21179e-05
*RES
1 *547:Q *10:20 35.5321 
2 *10:20 *10:30 17.4643 
3 *10:30 *493:A2 13.8 
4 *10:30 *10:39 0.276786 
5 *10:39 *10:41 3.41 
6 *10:41 *10:45 5.97933 
7 *10:45 *10:49 16.6161 
8 *10:49 *459:A2 10.6571 
9 *10:49 *458:B1 30.227 
10 *10:45 *499:A2 19.2375 
11 *10:41 *10:90 4.46593 
12 *10:90 *520:B1 31.0411 
13 *10:90 *10:115 7.50893 
14 *10:115 *529:C 9.3 
15 *10:115 *527:B1 42.2107 
16 *10:39 *495:A2 18.2911 
17 *10:20 *521:B 9.3 
*END

*D_NET *11 0.0117771
*CONN
*I *532:A0 I *D sky130_fd_sc_hd__mux2_1
*I *521:A I *D sky130_fd_sc_hd__nand4_1
*I *520:A1 I *D sky130_fd_sc_hd__a31o_1
*I *509:A I *D sky130_fd_sc_hd__inv_2
*I *508:A I *D sky130_fd_sc_hd__nand4_1
*I *496:A I *D sky130_fd_sc_hd__nand4_4
*I *500:A I *D sky130_fd_sc_hd__nand4_2
*I *515:A I *D sky130_fd_sc_hd__nand4_1
*I *526:B I *D sky130_fd_sc_hd__nand4_1
*I *548:Q O *D sky130_fd_sc_hd__dfxtp_2
*CAP
1 *532:A0 0
2 *521:A 1.43739e-05
3 *520:A1 2.17273e-05
4 *509:A 0.000541423
5 *508:A 0.000280463
6 *496:A 0
7 *500:A 8.67977e-05
8 *515:A 0
9 *526:B 0.000380301
10 *548:Q 0.00024628
11 *11:111 0.000733895
12 *11:54 0.000411148
13 *11:52 0.000565811
14 *11:40 0.000601577
15 *11:36 0.00055629
16 *11:34 0.000474977
17 *11:24 0.000618452
18 *11:12 0.000668543
19 *500:A *511:B 0.0001719
20 *500:A *515:D 6.85642e-07
21 *500:A *526:C 5.51789e-05
22 *500:A *45:110 0.000123359
23 *508:A *529:D 5.31122e-05
24 *508:A *52:14 7.74135e-05
25 *508:A *67:12 0.000252388
26 *509:A *490:B 0.000351736
27 *509:A *512:A 0.00018068
28 *509:A *513:B2 1.38904e-05
29 *509:A *521:D 0.000123254
30 *509:A *549:CLK 1.24368e-05
31 *509:A *612:A 0.000307356
32 *509:A *37:35 5.33005e-05
33 *509:A *38:14 8.56478e-05
34 *509:A *38:27 3.09893e-05
35 *509:A *51:37 0.000292156
36 *509:A *51:58 8.0789e-07
37 *509:A *172:12 1.721e-05
38 *509:A *172:18 0.000134447
39 *521:A *522:A2_N 5.38444e-06
40 *521:A *548:CLK 9.85526e-06
41 *526:B *515:B 3.69047e-06
42 *526:B *516:B2 0.000200573
43 *526:B *526:A 5.56206e-05
44 *526:B *545:CLK 0.000147447
45 *11:12 *532:A1 0.000272338
46 *11:24 *503:A 6.49966e-05
47 *11:24 *521:C 1.32056e-05
48 *11:24 *521:D 1.17091e-05
49 *11:24 *522:A2_N 9.77264e-06
50 *11:24 *532:A1 5.66971e-05
51 *11:24 *532:S 6.82912e-05
52 *11:24 *548:CLK 5.31616e-05
53 *11:24 *52:82 2.94004e-05
54 *11:24 *72:8 9.45048e-06
55 *11:34 *496:D 3.41517e-06
56 *11:34 *522:A2_N 4.20785e-05
57 *11:34 *531:A2 9.59055e-06
58 *11:36 *496:C 5.33005e-05
59 *11:40 *496:B 5.49995e-05
60 *11:40 *496:C 9.58632e-05
61 *11:40 *79:10 5.49995e-05
62 *11:52 *493:A3 5.71472e-05
63 *11:52 *494:D 8.86512e-05
64 *11:52 *515:B 1.58163e-05
65 *11:52 *515:C 1.80193e-05
66 *11:52 *515:D 1.47002e-05
67 *11:52 *545:CLK 9.5718e-07
68 *11:52 *47:6 8.57023e-05
69 *11:52 *79:10 0.00014955
70 *11:54 *515:B 1.58163e-05
71 *11:111 *496:D 9.94037e-05
72 *11:111 *522:A1_N 0.000138776
73 *11:111 *51:58 2.82059e-05
74 *501:B *526:B 5.33005e-05
75 *520:B1 *508:A 1.15281e-05
76 *520:B1 *509:A 8.44104e-05
77 *520:B1 *520:A1 4.78692e-06
78 *8:91 *526:B 5.66146e-05
79 *8:108 *11:36 4.24382e-05
80 *8:108 *11:40 2.68642e-05
81 *8:108 *11:111 2.81855e-05
82 *9:74 *508:A 0
83 *9:74 *11:34 0.000145484
84 *10:20 *11:24 0.0004625
85 *10:30 *11:24 9.41642e-05
86 *10:30 *11:34 0.000135028
87 *10:30 *11:52 0
88 *10:115 *508:A 5.317e-05
*RES
1 *548:Q *11:12 23.1393 
2 *11:12 *11:24 18.5893 
3 *11:24 *11:34 12.7321 
4 *11:34 *11:36 2.17857 
5 *11:36 *11:40 3.01786 
6 *11:40 *11:52 16.4464 
7 *11:52 *11:54 0.535714 
8 *11:54 *526:B 24.3 
9 *11:54 *515:A 9.3 
10 *11:52 *500:A 20.9786 
11 *11:40 *496:A 9.3 
12 *11:36 *508:A 24.2464 
13 *11:34 *11:111 3.78125 
14 *11:111 *509:A 32.8759 
15 *11:111 *520:A1 9.72857 
16 *11:24 *521:A 9.72857 
17 *11:12 *532:A0 9.3 
*END

*D_NET *12 0.00424639
*CONN
*I *529:A I *D sky130_fd_sc_hd__nor4_1
*I *495:B1 I *D sky130_fd_sc_hd__a21oi_4
*I *613:A I *D sky130_fd_sc_hd__dlygate4sd3_1
*I *499:C1 I *D sky130_fd_sc_hd__a211oi_1
*I *604:Q O *D sky130_fd_sc_hd__dfxtp_1
*CAP
1 *529:A 0.000514531
2 *495:B1 3.78894e-05
3 *613:A 0
4 *499:C1 0.000325766
5 *604:Q 5.29576e-05
6 *12:34 0.000671319
7 *12:23 0.000226962
8 *12:8 0.000486787
9 *495:B1 *500:C 1.87955e-05
10 *495:B1 *511:B 8.00806e-05
11 *499:C1 *472:B 3.7118e-05
12 *499:C1 *500:D 0.000134027
13 *499:C1 *604:D 0.000184205
14 *499:C1 *81:26 0.000159482
15 *529:A *500:C 0.000140933
16 *529:A *508:B 8.40601e-05
17 *529:A *510:A 5.80205e-05
18 *529:A *513:A2_N 2.84109e-05
19 *529:A *45:67 0.000340281
20 *12:23 *511:B 9.80904e-05
21 *12:23 *513:B1 0.000140856
22 *12:23 *81:26 3.40243e-05
23 *12:34 *511:B 0.000122296
24 *12:34 *513:B1 0.000126075
25 *12:34 *79:10 0
26 *12:34 *81:26 4.17858e-05
27 *499:A1 *499:C1 4.83349e-05
28 *499:B1 *499:C1 5.33005e-05
29 *527:B1 *529:A 0
*RES
1 *604:Q *12:8 10.2643 
2 *12:8 *499:C1 16.9786 
3 *12:8 *12:23 3 
4 *12:23 *613:A 9.3 
5 *12:23 *12:34 7.5 
6 *12:34 *495:B1 14.8357 
7 *12:34 *529:A 21.7643 
*END

*D_NET *13 0.00348621
*CONN
*I *615:A I *D sky130_fd_sc_hd__dlygate4sd3_1
*I *478:A1 I *D sky130_fd_sc_hd__mux2_1
*I *494:A I *D sky130_fd_sc_hd__nand4_2
*I *605:Q O *D sky130_fd_sc_hd__dfxtp_1
*CAP
1 *615:A 0.000150705
2 *478:A1 2.74371e-05
3 *494:A 0.000224511
4 *605:Q 0
5 *13:12 0.000740204
6 *13:4 0.000638961
7 *478:A1 *493:B1 2.59355e-05
8 *494:A *493:B1 0.000171409
9 *494:A *494:B 0
10 *494:A *520:A2 0.000178847
11 *494:A *47:6 5.49489e-05
12 *615:A *537:A0 5.66971e-05
13 *615:A *605:D 0.000143101
14 *13:12 *513:B2 6.20826e-05
15 *13:12 *530:A2 0.000146474
16 *13:12 *537:A0 0.000136081
17 *13:12 *612:A 6.54233e-05
18 *13:12 *38:27 0.000206876
19 *13:12 *172:12 7.2754e-05
20 *13:12 *172:18 1.52978e-05
21 *491:A *494:A 9.71197e-05
22 *520:B1 *494:A 0.000214761
23 *527:B1 *13:12 5.65899e-05
*RES
1 *605:Q *13:4 9.3 
2 *13:4 *13:12 20 
3 *13:12 *494:A 15.6036 
4 *13:12 *478:A1 9.83571 
5 *13:4 *615:A 13.0321 
*END

*D_NET *14 0.00101051
*CONN
*I *623:A I *D sky130_fd_sc_hd__dlygate4sd3_1
*I *492:A I *D sky130_fd_sc_hd__inv_2
*I *539:Q O *D sky130_fd_sc_hd__dfxtp_1
*CAP
1 *623:A 0.000128769
2 *492:A 9.57011e-05
3 *539:Q 0
4 *14:6 0.00022447
5 *492:A *478:A0 7.83659e-05
6 *492:A *530:A1 0
7 *492:A *626:A 9.25014e-06
8 *623:A *478:A0 1.02504e-05
9 *623:A *530:A1 0
10 *623:A *539:D 0.00015057
11 *623:A *626:A 0.000313134
*RES
1 *539:Q *14:6 13.8 
2 *14:6 *492:A 15.5768 
3 *14:6 *623:A 18.0857 
*END

*D_NET *15 0.00177063
*CONN
*I *539:D I *D sky130_fd_sc_hd__dfxtp_1
*I *479:X O *D sky130_fd_sc_hd__clkbuf_1
*CAP
1 *539:D 0.000624009
2 *479:X 0.000624009
3 *539:D *530:A2 6.15968e-05
4 *539:D *626:A 2.42516e-05
5 *539:D *172:12 0.000286198
6 *623:A *539:D 0.00015057
*RES
1 *479:X *539:D 37.7652 
*END

*D_NET *16 0.000589351
*CONN
*I *616:A I *D sky130_fd_sc_hd__dlygate4sd3_1
*I *481:Y O *D sky130_fd_sc_hd__a21oi_1
*CAP
1 *616:A 0.000106855
2 *481:Y 0.000106855
3 *616:A *481:A1 0.00010403
4 *616:A *481:B1 0.000144732
5 *616:A *483:A 2.85234e-05
6 *616:A *485:A 3.35113e-05
7 *454:A *616:A 2.85234e-05
8 *10:49 *616:A 3.63219e-05
*RES
1 *481:Y *616:A 30.9929 
*END

*D_NET *17 0.000322676
*CONN
*I *541:D I *D sky130_fd_sc_hd__dfxtp_1
*I *485:X O *D sky130_fd_sc_hd__clkbuf_1
*CAP
1 *541:D 0.00010686
2 *485:X 0.00010686
3 *541:D *483:B 0
4 *541:D *506:A3 0
5 *541:D *541:CLK 1.64343e-05
6 *541:D *42:10 9.25208e-05
*RES
1 *485:X *541:D 30.0152 
*END

*D_NET *18 0.00189197
*CONN
*I *618:A I *D sky130_fd_sc_hd__dlygate4sd3_1
*I *487:Y O *D sky130_fd_sc_hd__a21oi_1
*CAP
1 *618:A 0.000507073
2 *487:Y 0.000507073
3 *618:A *454:B 0.000181963
4 *618:A *480:C 9.41642e-05
5 *618:A *481:A1 7.56702e-05
6 *618:A *487:B1 6.25963e-05
7 *618:A *622:A 0.000269385
8 *618:A *109:20 0.0001829
9 *618:A *110:42 1.11453e-05
*RES
1 *487:Y *618:A 38.35 
*END

*D_NET *19 0.00128556
*CONN
*I *622:A I *D sky130_fd_sc_hd__dlygate4sd3_1
*I *488:Y O *D sky130_fd_sc_hd__a21boi_1
*CAP
1 *622:A 0.000235247
2 *488:Y 0.000235247
3 *622:A *452:A 0.000397875
4 *622:A *454:B 4.11837e-05
5 *622:A *488:A2 5.10822e-05
6 *622:A *488:B1_N 0
7 *622:A *627:A 1.72894e-05
8 *622:A *110:42 3.82538e-05
9 *618:A *622:A 0.000269385
*RES
1 *488:Y *622:A 34.1357 
*END

*D_NET *20 0.00166434
*CONN
*I *544:D I *D sky130_fd_sc_hd__dfxtp_2
*I *498:X O *D sky130_fd_sc_hd__xor2_1
*CAP
1 *544:D 0.000326599
2 *498:X 0.000326599
3 *544:D *452:A 5.49489e-05
4 *544:D *453:A 5.65955e-05
5 *544:D *455:A 0.000141734
6 *544:D *511:B 8.92256e-05
7 *544:D *517:B1 8.64194e-05
8 *544:D *518:A1 2.39779e-05
9 *544:D *518:B2 0.000182315
10 *544:D *545:CLK 3.35693e-05
11 *544:D *53:18 0.000113738
12 *544:D *89:6 9.76435e-06
13 *544:D *91:28 0.00018946
14 *544:D *104:32 2.93969e-05
*RES
1 *498:X *544:D 36.4571 
*END

*D_NET *21 0.00106015
*CONN
*I *545:D I *D sky130_fd_sc_hd__dfxtp_2
*I *506:X O *D sky130_fd_sc_hd__a31o_1
*CAP