*SPEF "ieee 1481-1999"
*DESIGN "pes_pwm"
*DATE "11:11:11 Fri 11 11, 1111"
*VENDOR "OpenRCX"
*PROGRAM "Parallel Extraction"
*VERSION "1.0"
*DESIGN_FLOW "NAME_SCOPE LOCAL" "PIN_CAP NONE"
*DIVIDER /
*DELIMITER :
*BUS_DELIMITER []
*T_UNIT 1 NS
*C_UNIT 1 PF
*R_UNIT 1 OHM
*L_UNIT 1 HENRY

*NAME_MAP
*1 PWM_OUT
*4 clk
*5 decrease_duty
*6 increase_duty
*7 DUTY_CYCLE\[0\]
*8 DUTY_CYCLE\[1\]
*9 DUTY_CYCLE\[2\]
*10 DUTY_CYCLE\[3\]
*11 PWM_DFF1\.Q
*12 PWM_DFF2\.Q
*13 PWM_DFF3\.Q
*14 PWM_DFF4\.Q
*15 _000_
*16 _001_
*17 _002_
*18 _003_
*19 _004_
*20 _005_
*21 _006_
*22 _007_
*23 _008_
*24 _009_
*25 _010_
*26 _038_
*27 _039_
*28 _040_
*29 _041_
*30 _042_
*31 _043_
*32 _044_
*33 _045_
*34 _046_
*35 _047_
*36 _048_
*37 _049_
*38 _050_
*39 _051_
*40 _052_
*41 _053_
*42 _054_
*43 _055_
*44 _056_
*45 _057_
*46 _058_
*47 _059_
*48 _060_
*49 _061_
*50 _062_
*51 _063_
*52 _064_
*53 _065_
*54 _066_
*55 _067_
*56 _068_
*57 _069_
*58 _070_
*59 _071_
*60 _072_
*61 _073_
*62 _074_
*63 _075_
*64 _076_
*65 _077_
*66 _078_
*67 _079_
*68 _080_
*69 _081_
*70 _082_
*71 _083_
*72 _084_
*73 _085_
*74 _086_
*75 _087_
*76 _088_
*77 _089_
*78 _090_
*79 _091_
*80 _092_
*81 _093_
*82 _094_
*83 _095_
*84 _096_
*85 _097_
*86 _098_
*87 _099_
*88 _100_
*89 _101_
*90 _102_
*91 _103_
*92 _104_
*93 _105_
*94 _106_
*95 _107_
*96 _108_
*97 _109_
*98 _110_
*99 _111_
*100 _112_
*101 _113_
*102 clknet_0_clk
*103 clknet_2_0__leaf_clk
*104 clknet_2_1__leaf_clk
*105 clknet_2_2__leaf_clk
*106 clknet_2_3__leaf_clk
*107 counter_PWM\[0\]
*108 counter_PWM\[1\]
*109 counter_PWM\[2\]
*110 counter_PWM\[3\]
*111 counter_debounce\[0\]
*112 counter_debounce\[10\]
*113 counter_debounce\[11\]
*114 counter_debounce\[12\]
*115 counter_debounce\[13\]
*116 counter_debounce\[14\]
*117 counter_debounce\[15\]
*118 counter_debounce\[16\]
*119 counter_debounce\[17\]
*120 counter_debounce\[18\]
*121 counter_debounce\[19\]
*122 counter_debounce\[1\]
*123 counter_debounce\[20\]
*124 counter_debounce\[21\]
*125 counter_debounce\[22\]
*126 counter_debounce\[23\]
*127 counter_debounce\[24\]
*128 counter_debounce\[25\]
*129 counter_debounce\[26\]
*130 counter_debounce\[27\]
*131 counter_debounce\[2\]
*132 counter_debounce\[3\]
*133 counter_debounce\[4\]
*134 counter_debounce\[5\]
*135 counter_debounce\[6\]
*136 counter_debounce\[7\]
*137 counter_debounce\[8\]
*138 counter_debounce\[9\]
*139 net1
*140 net10
*141 net11
*142 net12
*143 net13
*144 net14
*145 net15
*146 net16
*147 net17
*148 net18
*149 net19
*150 net2
*151 net20
*152 net21
*153 net22
*154 net23
*155 net24
*156 net25
*157 net26
*158 net27
*159 net28
*160 net29
*161 net3
*162 net30
*163 net31
*164 net32
*165 net33
*166 net34
*167 net35
*168 net36
*169 net37
*170 net38
*171 net39
*172 net4
*173 net40
*174 net41
*175 net42
*176 net43
*177 net44
*178 net5
*179 net6
*180 net7
*181 net8
*182 net9
*183 FILLER_0_0_100
*184 FILLER_0_0_113
*185 FILLER_0_0_50
*186 FILLER_0_0_54
*187 FILLER_0_0_60
*188 FILLER_0_0_78
*189 FILLER_0_0_88
*190 FILLER_0_0_9
*191 FILLER_0_10_101
*192 FILLER_0_10_113
*193 FILLER_0_10_121
*194 FILLER_0_10_19
*195 FILLER_0_10_27
*196 FILLER_0_10_29
*197 FILLER_0_10_33
*198 FILLER_0_10_38
*199 FILLER_0_10_42
*200 FILLER_0_10_80
*201 FILLER_0_11_110
*202 FILLER_0_11_113
*203 FILLER_0_11_121
*204 FILLER_0_11_3
*205 FILLER_0_11_76
*206 FILLER_0_11_98
*207 FILLER_0_12_103
*208 FILLER_0_12_115
*209 FILLER_0_12_123
*210 FILLER_0_12_14
*211 FILLER_0_12_22
*212 FILLER_0_12_3
*213 FILLER_0_12_45
*214 FILLER_0_12_69
*215 FILLER_0_12_7
*216 FILLER_0_12_79
*217 FILLER_0_12_83
*218 FILLER_0_12_91
*219 FILLER_0_13_106
*220 FILLER_0_13_113
*221 FILLER_0_13_121
*222 FILLER_0_13_15
*223 FILLER_0_13_21
*224 FILLER_0_13_3
*225 FILLER_0_13_60
*226 FILLER_0_13_70
*227 FILLER_0_13_82
*228 FILLER_0_13_94
*229 FILLER_0_14_109
*230 FILLER_0_14_11
*231 FILLER_0_14_121
*232 FILLER_0_14_29
*233 FILLER_0_14_3
*234 FILLER_0_14_35
*235 FILLER_0_14_76
*236 FILLER_0_14_85
*237 FILLER_0_14_97
*238 FILLER_0_15_105
*239 FILLER_0_15_111
*240 FILLER_0_15_113
*241 FILLER_0_15_121
*242 FILLER_0_15_15
*243 FILLER_0_15_23
*244 FILLER_0_15_3
*245 FILLER_0_15_45
*246 FILLER_0_15_49
*247 FILLER_0_15_53
*248 FILLER_0_15_57
*249 FILLER_0_15_69
*250 FILLER_0_15_81
*251 FILLER_0_15_93
*252 FILLER_0_16_109
*253 FILLER_0_16_121
*254 FILLER_0_16_15
*255 FILLER_0_16_27
*256 FILLER_0_16_29
*257 FILLER_0_16_3
*258 FILLER_0_16_41
*259 FILLER_0_16_58
*260 FILLER_0_16_62
*261 FILLER_0_16_79
*262 FILLER_0_16_83
*263 FILLER_0_16_85
*264 FILLER_0_16_97
*265 FILLER_0_17_109
*266 FILLER_0_17_113
*267 FILLER_0_17_121
*268 FILLER_0_17_15
*269 FILLER_0_17_27
*270 FILLER_0_17_3
*271 FILLER_0_17_35
*272 FILLER_0_17_85
*273 FILLER_0_17_97
*274 FILLER_0_18_109
*275 FILLER_0_18_121
*276 FILLER_0_18_15
*277 FILLER_0_18_27
*278 FILLER_0_18_29
*279 FILLER_0_18_3
*280 FILLER_0_18_85
*281 FILLER_0_18_97
*282 FILLER_0_19_101
*283 FILLER_0_19_109
*284 FILLER_0_19_113
*285 FILLER_0_19_121
*286 FILLER_0_19_15
*287 FILLER_0_19_27
*288 FILLER_0_19_3
*289 FILLER_0_19_54
*290 FILLER_0_19_57
*291 FILLER_0_19_77
*292 FILLER_0_19_89
*293 FILLER_0_1_104
*294 FILLER_0_1_113
*295 FILLER_0_1_121
*296 FILLER_0_1_3
*297 FILLER_0_1_65
*298 FILLER_0_1_69
*299 FILLER_0_1_92
*300 FILLER_0_20_109
*301 FILLER_0_20_113
*302 FILLER_0_20_15
*303 FILLER_0_20_27
*304 FILLER_0_20_29
*305 FILLER_0_20_3
*306 FILLER_0_20_44
*307 FILLER_0_20_48
*308 FILLER_0_20_55
*309 FILLER_0_20_57
*310 FILLER_0_20_64
*311 FILLER_0_20_76
*312 FILLER_0_20_85
*313 FILLER_0_20_97
*314 FILLER_0_2_102
*315 FILLER_0_2_114
*316 FILLER_0_2_122
*317 FILLER_0_2_27
*318 FILLER_0_2_43
*319 FILLER_0_2_73
*320 FILLER_0_2_82
*321 FILLER_0_2_91
*322 FILLER_0_3_105
*323 FILLER_0_3_111
*324 FILLER_0_3_113
*325 FILLER_0_3_121
*326 FILLER_0_3_3
*327 FILLER_0_3_74
*328 FILLER_0_4_100
*329 FILLER_0_4_112
*330 FILLER_0_4_19
*331 FILLER_0_4_64
*332 FILLER_0_5_102
*333 FILLER_0_5_110
*334 FILLER_0_5_113
*335 FILLER_0_5_121
*336 FILLER_0_5_3
*337 FILLER_0_5_69
*338 FILLER_0_5_86
*339 FILLER_0_5_9
*340 FILLER_0_6_113
*341 FILLER_0_6_121
*342 FILLER_0_6_3
*343 FILLER_0_6_82
*344 FILLER_0_6_85
*345 FILLER_0_7_111
*346 FILLER_0_7_113
*347 FILLER_0_7_121
*348 FILLER_0_7_3
*349 FILLER_0_7_73
*350 FILLER_0_8_10
*351 FILLER_0_8_109
*352 FILLER_0_8_121
*353 FILLER_0_8_3
*354 FILLER_0_8_34
*355 FILLER_0_8_85
*356 FILLER_0_8_97
*357 FILLER_0_9_110
*358 FILLER_0_9_113
*359 FILLER_0_9_121
*360 FILLER_0_9_3
*361 FILLER_0_9_52
*362 FILLER_0_9_9
*363 PHY_0
*364 PHY_1
*365 PHY_10
*366 PHY_11
*367 PHY_12
*368 PHY_13
*369 PHY_14
*370 PHY_15
*371 PHY_16
*372 PHY_17
*373 PHY_18
*374 PHY_19
*375 PHY_2
*376 PHY_20
*377 PHY_21
*378 PHY_22
*379 PHY_23
*380 PHY_24
*381 PHY_25
*382 PHY_26
*383 PHY_27
*384 PHY_28
*385 PHY_29
*386 PHY_3
*387 PHY_30
*388 PHY_31
*389 PHY_32
*390 PHY_33
*391 PHY_34
*392 PHY_35
*393 PHY_36
*394 PHY_37
*395 PHY_38
*396 PHY_39
*397 PHY_4
*398 PHY_40
*399 PHY_41
*400 PHY_5
*401 PHY_6
*402 PHY_7
*403 PHY_8
*404 PHY_9
*405 TAP_42
*406 TAP_43
*407 TAP_44
*408 TAP_45
*409 TAP_46
*410 TAP_47
*411 TAP_48
*412 TAP_49
*413 TAP_50
*414 TAP_51
*415 TAP_52
*416 TAP_53
*417 TAP_54
*418 TAP_55
*419 TAP_56
*420 TAP_57
*421 TAP_58
*422 TAP_59
*423 TAP_60
*424 TAP_61
*425 TAP_62
*426 TAP_63
*427 TAP_64
*428 TAP_65
*429 TAP_66
*430 TAP_67
*431 TAP_68
*432 TAP_69
*433 TAP_70
*434 TAP_71
*435 TAP_72
*436 TAP_73
*437 TAP_74
*438 TAP_75
*439 TAP_76
*440 TAP_77
*441 TAP_78
*442 TAP_79
*443 TAP_80
*444 TAP_81
*445 TAP_82
*446 TAP_83
*447 TAP_84
*448 TAP_85
*449 TAP_86
*450 TAP_87
*451 _114_
*452 _115_
*453 _116_
*454 _117_
*455 _118_
*456 _119_
*457 _120_
*458 _121_
*459 _122_
*460 _123_
*461 _124_
*462 _125_
*463 _126_
*464 _127_
*465 _128_
*466 _129_
*467 _130_
*468 _131_
*469 _132_
*470 _133_
*471 _134_
*472 _135_
*473 _136_
*474 _137_
*475 _138_
*476 _139_
*477 _140_
*478 _141_
*479 _142_
*480 _143_
*481 _144_
*482 _145_
*483 _146_
*484 _147_
*485 _148_
*486 _149_
*487 _150_
*488 _151_
*489 _152_
*490 _153_
*491 _154_
*492 _155_
*493 _156_
*494 _157_
*495 _158_
*496 _159_
*497 _160_
*498 _161_
*499 _162_
*500 _163_
*501 _164_
*502 _165_
*503 _166_
*504 _167_
*505 _168_
*506 _169_
*507 _170_
*508 _171_
*509 _172_
*510 _173_
*511 _174_
*512 _175_
*513 _176_
*514 _177_
*515 _178_
*516 _179_
*517 _180_
*518 _181_
*519 _182_
*520 _183_
*521 _184_
*522 _185_
*523 _186_
*524 _187_
*525 _188_
*526 _189_
*527 _190_
*528 _191_
*529 _192_
*530 _193_
*531 _194_
*532 _195_
*533 _196_
*534 _197_
*535 _198_
*536 _199_
*537 _200_
*538 _201_
*539 _202_
*540 _203_
*541 _204_
*542 _205_
*543 _206_
*544 _207_
*545 _208_
*546 _209_
*547 _210_
*548 _211_
*549 _212_
*550 _213_
*551 _213__31
*552 _214_
*553 _214__30
*554 _215_
*555 _215__29
*556 _216_
*557 _216__28
*558 _217_
*559 _217__27
*560 _218_
*561 _218__26
*562 _219_
*563 _219__25
*564 _220_
*565 _220__24
*566 _221_
*567 _221__23
*568 _222_
*569 _222__22
*570 _223_
*571 _223__21
*572 _224_
*573 _224__20
*574 _225_
*575 _225__19
*576 _226_
*577 _226__18
*578 _227_
*579 _227__17
*580 _228_
*581 _228__16
*582 _229_
*583 _229__15
*584 _230_
*585 _230__14
*586 _231_
*587 _231__13
*588 _232_
*589 _232__12
*590 _233_
*591 _233__11
*592 _234_
*593 _234__10
*594 _235_
*595 _235__9
*596 _236_
*597 _236__8
*598 _237_
*599 _237__7
*600 _238_
*601 _238__6
*602 _239_
*603 _239__5
*604 _240_
*605 _241_
*606 clkbuf_0_clk
*607 clkbuf_2_0__f_clk
*608 clkbuf_2_1__f_clk
*609 clkbuf_2_2__f_clk
*610 clkbuf_2_3__f_clk
*611 hold1
*612 hold10
*613 hold11
*614 hold12
*615 hold13
*616 hold2
*617 hold3
*618 hold4
*619 hold5
*620 hold6
*621 hold7
*622 hold8
*623 hold9
*624 input1
*625 input2
*626 max_cap4
*627 output3

*PORTS
PWM_OUT O
clk I
decrease_duty I
increase_duty I

*D_NET *1 0.00149177
*CONN
*P PWM_OUT O
*I *627:X O *D sky130_fd_sc_hd__clkbuf_4
*CAP
1 PWM_OUT 0.000372805
2 *627:X 0.000373081
3 *1:8 0.000745886
*RES
1 *627:X *1:8 45.2914 
2 *1:8 PWM_OUT 8.34786 
*END

*D_NET *4 0.00787042
*CONN
*P clk I
*I *606:A I *D sky130_fd_sc_hd__clkbuf_16
*CAP
1 clk 0.00166999
2 *606:A 0
3 *4:17 0.00132915
4 *4:13 0.00299914
5 *4:17 *78:10 0.000268221
6 *4:17 *85:8 0.000168754
7 *4:17 *106:60 0
8 *4:17 *106:95 0
9 *4:17 *120:10 0.000297755
10 *4:17 *131:12 0.000266438
11 *4:17 *132:10 8.57485e-05
12 *4:17 *134:8 0
13 *4:17 *158:18 0
14 *4:17 *178:10 0.000168515
15 *4:17 *181:8 0.000616708
*RES
1 clk *4:13 41.7526 
2 *4:13 *4:17 46.1336 
3 *4:17 *606:A 38 
*END

*D_NET *5 0.00152121
*CONN
*P decrease_duty I
*I *624:A I *D sky130_fd_sc_hd__clkbuf_1
*CAP
1 decrease_duty 0.000760605
2 *624:A 0
3 *5:11 0.000760605
*RES
1 decrease_duty *5:11 31.4679 
2 *5:11 *624:A 23 
*END

*D_NET *6 0.00120658
*CONN
*P increase_duty I
*I *625:A I *D sky130_fd_sc_hd__clkbuf_1
*CAP
1 increase_duty 0.000603292
2 *625:A 0
3 *6:15 0.000603292
*RES
1 increase_duty *6:15 34.2967 
2 *6:15 *625:A 23 
*END

*D_NET *7 0.00980316
*CONN
*I *619:A I *D sky130_fd_sc_hd__dlygate4sd3_1
*I *501:B I *D sky130_fd_sc_hd__nand2_1
*I *516:B1 I *D sky130_fd_sc_hd__a22oi_2
*I *504:B1 I *D sky130_fd_sc_hd__a21o_1
*I *456:A2 I *D sky130_fd_sc_hd__a22o_1
*I *493:A1 I *D sky130_fd_sc_hd__o31a_1
*I *544:Q O *D sky130_fd_sc_hd__dfxtp_2
*CAP
1 *619:A 0
2 *501:B 3.56111e-05
3 *516:B1 0.000114139
4 *504:B1 0.000483213
5 *456:A2 0.000370357
6 *493:A1 1.80182e-05
7 *544:Q 4.77758e-05
8 *7:91 0.000130212
9 *7:67 0.000160947
10 *7:33 0.00168826
11 *7:29 0.00108992
12 *7:14 0.000878606
13 *7:6 0.000794545
14 *456:A2 *456:A1 4.08322e-05
15 *456:A2 *456:B2 0.000173745
16 *456:A2 *499:A2 1.90283e-05
17 *456:A2 *514:A2 1.1258e-05
18 *456:A2 *611:A 8.72998e-05
19 *456:A2 *8:14 4.44201e-05
20 *456:A2 *8:25 0
21 *456:A2 *10:49 0.000105437
22 *456:A2 *89:33 2.60506e-05
23 *456:A2 *110:61 1.15433e-05
24 *493:A1 *515:C 6.17437e-06
25 *493:A1 *46:36 2.32101e-05
26 *493:A1 *49:8 5.50106e-05
27 *501:B *11:66 5.3304e-05
28 *501:B *55:42 6.17437e-06
29 *504:B1 *485:A 1.32939e-05
30 *504:B1 *504:A2 0.000794552
31 *504:B1 *58:39 7.98121e-05
32 *516:B1 *526:C 5.36812e-05
33 *516:B1 *55:42 0.000235332
34 *516:B1 *104:44 0.000166281
35 *7:6 *522:B1 1.59094e-05
36 *7:14 *495:A2 1.24585e-05
37 *7:14 *522:B1 0.000115314
38 *7:14 *10:30 0.000157093
39 *7:14 *10:39 5.08422e-06
40 *7:14 *50:12 0
41 *7:14 *61:29 1.19379e-05
42 *7:14 *69:8 4.06657e-05
43 *7:14 *70:10 0.000131263
44 *7:14 *104:32 4.41821e-06
45 *7:29 *495:A2 8.22421e-06
46 *7:29 *10:45 0.000308793
47 *7:33 *10:45 0.00102703
48 *7:33 *45:92 0
49 *7:67 *526:C 2.11157e-05
50 *7:67 *55:42 1.18349e-05
51 *7:91 *497:B 3.41998e-06
52 *7:91 *9:63 2.75733e-06
53 *7:91 *9:74 0
54 *7:91 *50:12 8.36198e-05
55 *7:91 *52:20 2.41858e-05
*RES
1 *544:Q *7:6 23.6214 
2 *7:6 *7:14 25.9371 
3 *7:14 *493:A1 38.6214 
4 *7:14 *7:29 8.97814 
5 *7:29 *7:33 10.0309 
6 *7:33 *456:A2 46.7 
7 *7:33 *504:B1 48.6471 
8 *7:29 *7:67 8.32107 
9 *7:67 *516:B1 41.3143 
10 *7:67 *501:B 38.6214 
11 *7:6 *7:91 32.2579 
12 *7:91 *619:A 23 
*END

*D_NET *8 0.0161632
*CONN
*I *491:B I *D sky130_fd_sc_hd__or2_1
*I *503:B I *D sky130_fd_sc_hd__nand2_1
*I *516:A2 I *D sky130_fd_sc_hd__a22oi_2
*I *502:A1 I *D sky130_fd_sc_hd__a21o_1
*I *505:C I *D sky130_fd_sc_hd__and3_1
*I *454:A I *D sky130_fd_sc_hd__or2_1
*I *456:B2 I *D sky130_fd_sc_hd__a22o_1
*I *499:B1 I *D sky130_fd_sc_hd__a211oi_1
*I *545:Q O *D sky130_fd_sc_hd__dfxtp_2
*CAP
1 *491:B 0.000138741
2 *503:B 0
3 *516:A2 4.84061e-05
4 *502:A1 0
5 *505:C 0
6 *454:A 0
7 *456:B2 0.000298375
8 *499:B1 0
9 *545:Q 0
10 *8:130 0.00103837
11 *8:108 0.00203649
12 *8:91 0.00139668
13 *8:76 9.63446e-05
14 *8:68 0.00082395
15 *8:61 0.000290507
16 *8:52 0.00115141
17 *8:42 0.00120321
18 *8:25 0.000463589
19 *8:14 0.000472389
20 *8:4 0.000637603
21 *456:B2 *456:A1 3.2277e-05
22 *456:B2 *481:A2 6.28212e-06
23 *456:B2 *611:A 1.94812e-05
24 *456:B2 *9:52 8.36198e-05
25 *456:B2 *110:61 2.06902e-05
26 *491:B *104:73 8.30649e-05
27 *491:B *172:46 4.68626e-05
28 *516:A2 *79:8 2.41152e-05
29 *8:14 *499:A2 0
30 *8:14 *499:C1 5.3304e-05
31 *8:14 *9:52 9.41704e-05
32 *8:14 *37:22 0.000264719
33 *8:14 *58:39 9.84851e-05
34 *8:14 *103:71 0.000236923
35 *8:14 *128:31 1.22906e-05
36 *8:25 *611:A 1.61983e-05
37 *8:25 *9:52 0.000215981
38 *8:25 *58:39 5.50049e-05
39 *8:52 *480:A 0.000121701
40 *8:52 *541:CLK 0.000357711
41 *8:52 *616:A 2.95423e-05
42 *8:52 *50:50 5.5792e-05
43 *8:52 *59:16 6.79563e-05
44 *8:52 *107:10 2.68248e-05
45 *8:52 *107:20 2.44754e-05
46 *8:52 *108:6 5.3304e-05
47 *8:52 *108:8 0.000272408
48 *8:52 *108:18 0.000604236
49 *8:52 *108:29 3.46013e-05
50 *8:52 *108:48 0
51 *8:52 *164:16 1.90514e-05
52 *8:52 *165:10 3.93691e-05
53 *8:61 *50:50 6.48532e-05
54 *8:68 *50:50 0.000294597
55 *8:76 *456:A1 1.59071e-05
56 *8:76 *52:59 8.91008e-05
57 *8:76 *57:10 8.29264e-05
58 *8:91 *516:A1 7.2092e-05
59 *8:91 *526:C 0.000291397
60 *8:91 *526:D 9.09342e-06
61 *8:91 *11:66 5.8072e-05
62 *8:91 *50:50 9.41704e-05
63 *8:91 *70:10 4.44808e-05
64 *8:91 *79:8 0.000196278
65 *8:108 *496:B 1.59094e-05
66 *8:108 *496:C 2.43944e-05
67 *8:108 *496:D 5.11621e-05
68 *8:108 *11:36 4.05709e-05
69 *8:108 *11:40 2.57057e-05
70 *8:108 *11:111 2.71358e-05
71 *8:108 *51:58 5.47983e-06
72 *8:108 *52:12 2.64616e-05
73 *8:108 *79:8 1.84207e-05
74 *8:130 *521:D 4.85776e-05
75 *8:130 *532:S 0.000274636
76 *8:130 *10:10 8.4047e-05
77 *8:130 *52:97 0.000495928
78 *8:130 *72:18 0.000269542
79 *8:130 *104:73 3.66875e-05
80 *8:130 *172:18 1.12695e-05
81 *8:130 *172:46 9.5956e-06
82 *456:A2 *456:B2 0.000173745
83 *456:A2 *8:14 4.44201e-05
84 *456:A2 *8:25 0
*RES
1 *545:Q *8:4 23 
2 *8:4 *8:14 39.0314 
3 *8:14 *499:B1 23 
4 *8:4 *8:25 18.5836 
5 *8:25 *456:B2 43.4064 
6 *8:25 *8:42 15 
7 *8:42 *8:52 37.0193 
8 *8:52 *454:A 38 
9 *8:42 *8:61 0.756071 
10 *8:61 *505:C 23 
11 *8:61 *8:68 3.34536 
12 *8:68 *8:76 31.8229 
13 *8:76 *502:A1 23 
14 *8:68 *8:91 10.6057 
15 *8:91 *516:A2 24.3671 
16 *8:91 *8:108 26.2479 
17 *8:108 *8:130 45.6085 
18 *8:130 *503:B 23 
19 *8:108 *491:B 40.61 
*END

*D_NET *9 0.0130989
*CONN
*I *519:A1 I *D sky130_fd_sc_hd__o21a_1
*I *513:A1_N I *D sky130_fd_sc_hd__o2bb2ai_2
*I *491:A I *D sky130_fd_sc_hd__or2_1
*I *620:A I *D sky130_fd_sc_hd__dlygate4sd3_1
*I *499:A1 I *D sky130_fd_sc_hd__a211oi_1
*I *457:A1 I *D sky130_fd_sc_hd__a22o_1
*I *458:A2 I *D sky130_fd_sc_hd__o221a_1
*I *546:Q O *D sky130_fd_sc_hd__dfxtp_2
*CAP
1 *519:A1 0.000105163
2 *513:A1_N 0.000512497
3 *491:A 2.84143e-05
4 *620:A 0
5 *499:A1 0
6 *457:A1 0
7 *458:A2 0.000344984
8 *546:Q 0.000367799
9 *9:74 0.00100839
10 *9:70 0.000594016
11 *9:63 0.00016264
12 *9:52 0.000918364
13 *9:16 0.00228461
14 *9:10 0.00153032
15 *458:A2 *454:B 1.21972e-05
16 *458:A2 *457:A2 0.000149475
17 *458:A2 *88:10 7.17297e-05
18 *458:A2 *88:16 2.02872e-05
19 *458:A2 *88:34 0.000100546
20 *458:A2 *90:16 0.000122372
21 *458:A2 *107:39 1.27424e-05
22 *458:A2 *166:10 0.000184527
23 *491:A *494:A 9.67842e-05
24 *491:A *48:8 9.67842e-05
25 *513:A1_N *10:115 8.52717e-05
26 *513:A1_N *62:10 2.26497e-05
27 *513:A1_N *63:8 0.000201648
28 *513:A1_N *81:49 0
29 *513:A1_N *104:73 7.31939e-05
30 *519:A1 *10:18 6.17437e-06
31 *519:A1 *52:82 4.49877e-05
32 *519:A1 *104:58 9.41704e-05
33 *9:10 *497:B 0
34 *9:10 *23:8 0
35 *9:10 *75:10 0
36 *9:10 *169:8 4.334e-05
37 *9:16 *10:70 1.32844e-05
38 *9:16 *58:16 0.00034295
39 *9:16 *67:18 5.5707e-05
40 *9:16 *68:12 0.000963354
41 *9:52 *457:A2 1.05441e-05
42 *9:52 *499:C1 4.9653e-05
43 *9:52 *510:B 3.74442e-05
44 *9:52 *550:CLK 1.00203e-05
45 *9:52 *30:14 0.000236856
46 *9:52 *58:16 0.000111993
47 *9:52 *58:39 0.000354212
48 *9:52 *81:10 2.45549e-06
49 *9:52 *81:18 8.31864e-05
50 *9:52 *92:8 8.78864e-05
51 *9:52 *102:27 0
52 *9:52 *103:71 6.90668e-05
53 *9:63 *104:58 0.000274489
54 *9:70 *104:58 5.56279e-05
55 *9:74 *10:100 1.65299e-05
56 *9:74 *10:115 2.28656e-05
57 *9:74 *11:34 0.000160915
58 *9:74 *11:104 0
59 *9:74 *73:10 0.000135768
60 *9:74 *75:10 0.000155844
61 *9:74 *104:71 3.09219e-05
62 *9:74 *104:73 0.000124727
63 *456:B2 *9:52 8.36198e-05
64 *7:91 *9:63 2.75733e-06
65 *7:91 *9:74 0
66 *8:14 *9:52 9.41704e-05
67 *8:25 *9:52 0.000215981
*RES
1 *546:Q *9:10 43.6446 
2 *9:10 *9:16 19.0613 
3 *9:16 *458:A2 44.6079 
4 *9:16 *457:A1 38 
5 *9:16 *9:52 34.0571 
6 *9:52 *499:A1 23 
7 *9:10 *9:63 18.3246 
8 *9:63 *620:A 23 
9 *9:63 *9:70 0.621429 
10 *9:70 *9:74 23.9486 
11 *9:74 *491:A 39.0979 
12 *9:74 *513:A1_N 45.6229 
13 *9:70 *519:A1 25.0507 
*END

*D_NET *10 0.0212477
*CONN
*I *521:B I *D sky130_fd_sc_hd__nand4_1
*I *495:A2 I *D sky130_fd_sc_hd__a21oi_4
*I *527:B1 I *D sky130_fd_sc_hd__o21a_1
*I *529:C I *D sky130_fd_sc_hd__nor4_1
*I *520:B1 I *D sky130_fd_sc_hd__a31o_1
*I *499:A2 I *D sky130_fd_sc_hd__a211oi_1
*I *458:B1 I *D sky130_fd_sc_hd__o221a_1
*I *459:A2 I *D sky130_fd_sc_hd__a21o_1
*I *493:A2 I *D sky130_fd_sc_hd__o31a_1
*I *547:Q O *D sky130_fd_sc_hd__dfxtp_4
*CAP
1 *521:B 0
2 *495:A2 0.000216361
3 *527:B1 0
4 *529:C 0
5 *520:B1 0.000104437
6 *499:A2 0.000330099
7 *458:B1 0
8 *459:A2 5.62303e-05
9 *493:A2 0
10 *547:Q 9.75063e-05
11 *10:154 0.000155477
12 *10:142 0.000685044
13 *10:115 0.000742518
14 *10:100 0.000639679
15 *10:90 0.00136925
16 *10:70 0.000550002
17 *10:49 0.00128862
18 *10:45 0.00223311
19 *10:41 0.00184168
20 *10:39 0.000227876
21 *10:30 0.000812092
22 *10:20 0.000800577
23 *10:18 0.000416209
24 *10:10 0.000513715
25 *459:A2 *459:A1 0.000139357
26 *459:A2 *459:B1 4.57742e-05
27 *495:A2 *510:A 7.44354e-05
28 *495:A2 *45:59 0
29 *495:A2 *45:67 0.00015507
30 *495:A2 *46:53 6.33614e-05
31 *495:A2 *47:19 0.000106859
32 *495:A2 *51:18 0
33 *499:A2 *523:C 5.1687e-05
34 *499:A2 *45:92 1.73957e-05
35 *499:A2 *111:20 1.13812e-05
36 *499:A2 *126:10 0.000107212
37 *499:A2 *128:31 4.06408e-05
38 *499:A2 *164:16 0
39 *520:B1 *520:A1 4.80579e-06
40 *520:B1 *11:125 6.17437e-06
41 *520:B1 *51:58 1.8788e-05
42 *10:10 *68:30 1.39431e-05
43 *10:10 *72:18 8.4047e-05
44 *10:18 *521:D 0
45 *10:18 *547:CLK 4.26617e-05
46 *10:18 *548:CLK 2.42715e-05
47 *10:18 *11:24 0.000491477
48 *10:18 *52:82 6.22878e-06
49 *10:18 *52:97 0
50 *10:18 *104:71 9.31973e-05
51 *10:18 *104:73 1.60949e-05
52 *10:30 *522:B1 0.000384667
53 *10:30 *522:B2 0.00014119
54 *10:30 *11:24 9.41704e-05
55 *10:30 *11:34 0.000135037
56 *10:30 *11:52 0
57 *10:30 *47:19 4.77164e-06
58 *10:30 *50:12 0
59 *10:30 *50:40 0.000321419
60 *10:30 *75:10 7.04466e-06
61 *10:30 *79:10 0
62 *10:39 *47:19 9.85586e-06
63 *10:45 *514:B1 0
64 *10:45 *45:92 0
65 *10:45 *67:18 0
66 *10:49 *16:8 3.76247e-05
67 *10:49 *40:21 9.45414e-05
68 *10:49 *41:14 0.000266167
69 *10:49 *110:29 0.000215791
70 *10:49 *164:16 0
71 *10:49 *164:29 0.000215405
72 *10:70 *459:A1 0.000127821
73 *10:70 *459:B1 4.57742e-05
74 *10:70 *482:B 0
75 *10:70 *41:14 0.000151965
76 *10:70 *58:16 0.000131169
77 *10:70 *87:23 7.06542e-05
78 *10:70 *88:34 8.03172e-05
79 *10:70 *107:39 6.99864e-05
80 *10:90 *51:35 7.23643e-05
81 *10:90 *79:22 0
82 *10:100 *494:A 0.000220579
83 *10:100 *11:104 1.08927e-05
84 *10:100 *11:125 8.62783e-05
85 *10:100 *47:6 9.72368e-05
86 *10:100 *172:18 8.62783e-05
87 *10:115 *11:104 5.04322e-05
88 *10:115 *81:49 0
89 *10:142 *513:B2 0.000272582
90 *10:142 *529:A 0
91 *10:142 *539:CLK 5.56356e-05
92 *10:142 *33:58 4.77164e-06
93 *10:142 *51:82 0.000223361
94 *10:142 *63:12 7.14493e-05
95 *10:142 *65:22 1.16712e-05
96 *10:142 *79:22 0.00014389
97 *10:142 *82:10 7.43025e-06
98 *10:142 *104:84 0.000191557
99 *10:154 *13:12 6.30761e-05
100 *10:154 *38:27 6.07848e-05
101 *10:154 *51:82 6.90085e-05
102 *10:154 *66:24 0.000100486
103 *10:154 *80:10 2.82035e-05
104 *10:154 *174:8 0.000147656
105 *456:A2 *499:A2 1.90283e-05
106 *456:A2 *10:49 0.000105437
107 *513:A1_N *10:115 8.52717e-05
108 *519:A1 *10:18 6.17437e-06
109 *7:14 *495:A2 1.24585e-05
110 *7:14 *10:30 0.000157093
111 *7:14 *10:39 5.08422e-06
112 *7:29 *495:A2 8.22421e-06
113 *7:29 *10:45 0.000308793
114 *7:33 *10:45 0.00102703
115 *8:14 *499:A2 0
116 *8:130 *10:10 8.4047e-05
117 *9:16 *10:70 1.32844e-05
118 *9:74 *10:100 1.65299e-05
119 *9:74 *10:115 2.28656e-05
*RES
1 *547:Q *10:10 39.8229 
2 *10:10 *10:18 37.7264 
3 *10:18 *10:20 15 
4 *10:20 *10:30 30.0386 
5 *10:30 *493:A2 38 
6 *10:30 *10:39 0.321071 
7 *10:39 *10:41 8 
8 *10:41 *10:45 11.0613 
9 *10:45 *10:49 29.0546 
10 *10:49 *459:A2 24.5743 
11 *10:49 *10:70 36.9482 
12 *10:70 *458:B1 38 
13 *10:45 *499:A2 44.3075 
14 *10:41 *10:90 9.25813 
15 *10:90 *10:100 37.7368 
16 *10:100 *520:B1 39.8229 
17 *10:90 *10:115 18.4904 
18 *10:115 *529:C 23 
19 *10:115 *10:142 42.8014 
20 *10:142 *10:154 34.495 
21 *10:154 *527:B1 23 
22 *10:39 *495:A2 43.2096 
23 *10:20 *521:B 23 
*END

*D_NET *11 0.0132524
*CONN
*I *532:A0 I *D sky130_fd_sc_hd__mux2_1
*I *521:A I *D sky130_fd_sc_hd__nand4_1
*I *520:A1 I *D sky130_fd_sc_hd__a31o_1
*I *509:A I *D sky130_fd_sc_hd__inv_2
*I *508:A I *D sky130_fd_sc_hd__nand4_1
*I *496:A I *D sky130_fd_sc_hd__nand4_4
*I *500:A I *D sky130_fd_sc_hd__nand4_2
*I *515:A I *D sky130_fd_sc_hd__nand4_1
*I *526:B I *D sky130_fd_sc_hd__nand4_1
*I *548:Q O *D sky130_fd_sc_hd__dfxtp_2
*CAP
1 *532:A0 0
2 *521:A 1.61208e-05
3 *520:A1 2.31465e-05
4 *509:A 0
5 *508:A 0
6 *496:A 0
7 *500:A 0
8 *515:A 0
9 *526:B 0
10 *548:Q 0.000150258
11 *11:125 0.000670094
12 *11:111 0.000892842
13 *11:104 0.000351253
14 *11:84 0.000108719
15 *11:66 0.000465201
16 *11:54 0.000503845
17 *11:52 0.000645479
18 *11:40 0.00067473
19 *11:36 0.000667703
20 *11:34 0.000569063
21 *11:24 0.000750208
22 *11:12 0.000622834
23 *11:8 0.000268631
24 *521:A *522:A2_N 5.47983e-06
25 *521:A *548:CLK 1.07133e-05
26 *11:12 *150:12 0.000279219
27 *11:24 *521:C 1.3523e-05
28 *11:24 *521:D 1.11037e-05
29 *11:24 *522:A2_N 9.78729e-06
30 *11:24 *532:S 7.01168e-05
31 *11:24 *548:CLK 5.45849e-05
32 *11:24 *52:82 2.94066e-05
33 *11:24 *52:97 6.52235e-05
34 *11:24 *72:8 9.09342e-06
35 *11:24 *150:12 5.82853e-05
36 *11:34 *496:D 3.23857e-06
37 *11:34 *522:A2_N 4.3124e-05
38 *11:34 *75:10 9.20974e-06
39 *11:36 *496:C 5.3304e-05
40 *11:40 *496:B 5.5792e-05
41 *11:40 *496:C 9.66585e-05
42 *11:40 *79:8 5.5792e-05
43 *11:52 *493:A3 5.67058e-05
44 *11:52 *515:B 1.59094e-05
45 *11:52 *515:C 1.8166e-05
46 *11:52 *47:6 8.52481e-05
47 *11:52 *49:8 9.0102e-05
48 *11:52 *51:18 1.59501e-05
49 *11:52 *79:10 0.000166084
50 *11:52 *104:44 8.89032e-07
51 *11:54 *515:B 1.59094e-05
52 *11:66 *515:B 3.7122e-06
53 *11:66 *55:42 0.000219705
54 *11:66 *104:44 0.000147435
55 *11:66 *111:59 5.43652e-05
56 *11:84 *526:C 6.08462e-05
57 *11:84 *45:110 0.000136609
58 *11:84 *51:18 6.55701e-07
59 *11:84 *61:29 0.000189661
60 *11:104 *52:12 8.57577e-05
61 *11:104 *67:12 0.000272621
62 *11:104 *81:49 5.79466e-05
63 *11:111 *496:D 0.000103415
64 *11:111 *51:58 2.82053e-05
65 *11:111 *73:10 0.000140362
66 *11:125 *521:D 0.000136165
67 *11:125 *549:CLK 1.24376e-05
68 *11:125 *37:35 5.3304e-05
69 *11:125 *37:56 0.000369759
70 *11:125 *38:14 8.56129e-05
71 *11:125 *38:27 3.24148e-05
72 *11:125 *39:10 0.000338497
73 *11:125 *51:37 0.000322719
74 *11:125 *51:58 7.89265e-07
75 *11:125 *51:82 0.000199975
76 *11:125 *66:24 1.32865e-05
77 *11:125 *172:12 1.78655e-05
78 *11:125 *172:18 0.000144609
79 *501:B *11:66 5.3304e-05
80 *520:B1 *520:A1 4.80579e-06
81 *520:B1 *11:125 6.17437e-06
82 *8:91 *11:66 5.8072e-05
83 *8:108 *11:36 4.05709e-05
84 *8:108 *11:40 2.57057e-05
85 *8:108 *11:111 2.71358e-05
86 *9:74 *11:34 0.000160915
87 *9:74 *11:104 0
88 *10:18 *11:24 0.000491477
89 *10:30 *11:24 9.41704e-05
90 *10:30 *11:34 0.000135037
91 *10:30 *11:52 0
92 *10:100 *11:104 1.08927e-05
93 *10:100 *11:125 8.62783e-05
94 *10:115 *11:104 5.04322e-05
*RES
1 *548:Q *11:8 40.61 
2 *11:8 *11:12 18.0036 
3 *11:12 *11:24 41.1236 
4 *11:24 *11:34 34.3293 
5 *11:34 *11:36 2.52714 
6 *11:36 *11:40 3.50071 
7 *11:40 *11:52 38.6379 
8 *11:52 *11:54 0.621429 
9 *11:54 *11:66 36.96 
10 *11:66 *526:B 23 
11 *11:54 *515:A 23 
12 *11:52 *11:84 33.1071 
13 *11:84 *500:A 23 
14 *11:40 *496:A 23 
15 *11:36 *11:104 36.8979 
16 *11:104 *508:A 23 
17 *11:34 *11:111 4.38625 
18 *11:111 *11:125 46.908 
19 *11:125 *509:A 23 
20 *11:111 *520:A1 23.4971 
21 *11:24 *521:A 23.4971 
22 *11:12 *532:A0 23 
*END

*D_NET *12 0.00465189
*CONN
*I *529:A I *D sky130_fd_sc_hd__nor4_1
*I *495:B1 I *D sky130_fd_sc_hd__a21oi_4
*I *613:A I *D sky130_fd_sc_hd__dlygate4sd3_1
*I *499:C1 I *D sky130_fd_sc_hd__a211oi_1
*I *604:Q O *D sky130_fd_sc_hd__dfxtp_1
*CAP
1 *529:A 0.000556923
2 *495:B1 4.78868e-05
3 *613:A 0
4 *499:C1 0.000396163
5 *604:Q 6.04274e-05
6 *12:34 0.000751601
7 *12:23 0.000277779
8 *12:8 0.000587578
9 *495:B1 *46:53 1.86869e-05
10 *495:B1 *61:29 8.85189e-05
11 *499:C1 *604:D 0.000186219
12 *499:C1 *30:14 3.87828e-05
13 *499:C1 *54:10 0.000135683
14 *499:C1 *81:26 0.00016568
15 *529:A *508:B 8.58288e-05
16 *529:A *510:A 5.95534e-05
17 *529:A *45:67 0.000338641
18 *529:A *46:53 0.000140259
19 *529:A *62:10 2.93431e-05
20 *12:23 *61:29 0.000101883
21 *12:23 *65:22 0.000143259
22 *12:23 *81:26 3.41817e-05
23 *12:34 *61:29 0.000134573
24 *12:34 *65:22 0.000127654
25 *12:34 *79:10 0
26 *12:34 *81:26 4.18304e-05
27 *8:14 *499:C1 5.3304e-05
28 *9:52 *499:C1 4.9653e-05
29 *10:142 *529:A 0
*RES
1 *604:Q *12:8 24.1186 
2 *12:8 *499:C1 31.9071 
3 *12:8 *12:23 3.48 
4 *12:23 *613:A 23 
5 *12:23 *12:34 18.48 
6 *12:34 *495:B1 39.2014 
7 *12:34 *529:A 47.2386 
*END

*D_NET *13 0.00387836
*CONN
*I *615:A I *D sky130_fd_sc_hd__dlygate4sd3_1
*I *478:A1 I *D sky130_fd_sc_hd__mux2_1
*I *494:A I *D sky130_fd_sc_hd__nand4_2
*I *605:Q O *D sky130_fd_sc_hd__dfxtp_1
*CAP
1 *615:A 0.000158062
2 *478:A1 3.39883e-05
3 *494:A 0.000276472
4 *605:Q 0
5 *13:12 0.000898628
6 *13:4 0.00074623
7 *478:A1 *48:8 2.64616e-05
8 *494:A *494:B 0
9 *494:A *47:6 5.56279e-05
10 *494:A *48:8 0.000176702
11 *494:A *172:46 0.000178517
12 *615:A *27:8 0.000150071
13 *615:A *177:10 5.82853e-05
14 *13:12 *38:27 0.000214283
15 *13:12 *39:10 6.51534e-05
16 *13:12 *66:24 6.83008e-05
17 *13:12 *82:10 0.000161121
18 *13:12 *172:12 7.56417e-05
19 *13:12 *172:18 1.58805e-05
20 *13:12 *177:10 0.000138493
21 *491:A *494:A 9.67842e-05
22 *10:100 *494:A 0.000220579
23 *10:154 *13:12 6.30761e-05
*RES
1 *605:Q *13:4 23 
2 *13:4 *13:12 42.76 
3 *13:12 *494:A 30.3121 
4 *13:12 *478:A1 23.6214 
5 *13:4 *615:A 27.3293 
*END

*D_NET *14 0.0011103
*CONN
*I *623:A I *D sky130_fd_sc_hd__dlygate4sd3_1
*I *492:A I *D sky130_fd_sc_hd__inv_2
*I *539:Q O *D sky130_fd_sc_hd__dfxtp_1
*CAP
1 *623:A 0.000151118
2 *492:A 0.000115742
3 *539:Q 0
4 *14:6 0.000266861
5 *492:A *38:46 1.01436e-05
6 *492:A *80:10 0
7 *492:A *173:8 8.62876e-05
8 *623:A *539:D 0.000153113
9 *623:A *626:A 0.000273008
10 *623:A *38:46 4.2576e-05
11 *623:A *80:10 0
12 *623:A *173:8 1.14452e-05
*RES
1 *539:Q *14:6 38 
2 *14:6 *492:A 40.0611 
3 *14:6 *623:A 42.9714 
*END

*D_NET *15 0.00191122
*CONN
*I *539:D I *D sky130_fd_sc_hd__dfxtp_1
*I *479:X O *D sky130_fd_sc_hd__clkbuf_1
*CAP
1 *539:D 0.000611723
2 *479:X 8.10608e-05
3 *15:8 0.000692784
4 *539:D *626:A 2.43944e-05
5 *539:D *82:10 6.28463e-05
6 *539:D *172:12 0.000285294
7 *623:A *539:D 0.000153113
*RES
1 *479:X *15:8 39.2014 
2 *15:8 *539:D 48.5902 
*END

*D_NET *16 0.000677855
*CONN
*I *616:A I *D sky130_fd_sc_hd__dlygate4sd3_1
*I *481:Y O *D sky130_fd_sc_hd__a21oi_1
*CAP
1 *616:A 2.13845e-05
2 *481:Y 0.00011501
3 *16:8 0.000136394
4 *616:A *164:16 2.95423e-05
5 *16:8 *40:21 0.000116366
6 *16:8 *43:10 3.18662e-05
7 *16:8 *164:29 0.000160125
8 *8:52 *616:A 2.95423e-05
9 *10:49 *16:8 3.76247e-05
*RES
1 *481:Y *16:8 41.3143 
2 *16:8 *616:A 38.6214 
*END

*D_NET *17 0.000360714
*CONN
*I *541:D I *D sky130_fd_sc_hd__dfxtp_1
*I *485:X O *D sky130_fd_sc_hd__clkbuf_1
*CAP
1 *541:D 1.02508e-05
2 *485:X 0.000113801
3 *17:8 0.000124052
4 *541:D *541:CLK 1.64354e-05
5 *17:8 *42:10 9.6175e-05
6 *17:8 *59:8 0
7 *17:8 *108:29 0
*RES
1 *485:X *17:8 40.61 
2 *17:8 *541:D 38.1916 
*END

*D_NET *18 0.00209281
*CONN
*I *618:A I *D sky130_fd_sc_hd__dlygate4sd3_1
*I *487:Y O *D sky130_fd_sc_hd__a21oi_1
*CAP
1 *618:A 0.000176719
2 *487:Y 0.000421816
3 *18:14 0.000598534
4 *618:A *40:21 7.80083e-05
5 *618:A *109:20 0
6 *18:14 *454:B 0.000187738
7 *18:14 *487:B1 6.32777e-05
8 *18:14 *622:A 0.000274237
9 *18:14 *109:20 0.000187732
10 *18:14 *109:30 9.41704e-05
11 *18:14 *110:42 1.05819e-05
*RES
1 *487:Y *18:14 47.86 
2 *18:14 *618:A 40.61 
*END

*D_NET *19 0.00138042
*CONN