*SPEF "ieee 1481-1999"
*DESIGN "pes_pwm"
*DATE "11:11:11 Fri 11 11, 1111"
*VENDOR "OpenRCX"
*PROGRAM "Parallel Extraction"
*VERSION "1.0"
*DESIGN_FLOW "NAME_SCOPE LOCAL" "PIN_CAP NONE"
*DIVIDER /
*DELIMITER :
*BUS_DELIMITER []
*T_UNIT 1 NS
*C_UNIT 1 PF
*R_UNIT 1 OHM
*L_UNIT 1 HENRY

*NAME_MAP
*1 PWM_OUT
*4 clk
*5 decrease_duty
*6 increase_duty
*7 DUTY_CYCLE\[0\]
*8 DUTY_CYCLE\[1\]
*9 DUTY_CYCLE\[2\]
*10 DUTY_CYCLE\[3\]
*11 PWM_DFF1\.Q
*12 PWM_DFF2\.Q
*13 PWM_DFF3\.Q
*14 PWM_DFF4\.Q
*15 _000_
*16 _001_
*17 _002_
*18 _003_
*19 _004_
*20 _005_
*21 _006_
*22 _007_
*23 _008_
*24 _009_
*25 _010_
*26 _038_
*27 _039_
*28 _040_
*29 _041_
*30 _042_
*31 _043_
*32 _044_
*33 _045_
*34 _046_
*35 _047_
*36 _048_
*37 _049_
*38 _050_
*39 _051_
*40 _052_
*41 _053_
*42 _054_
*43 _055_
*44 _056_
*45 _057_
*46 _058_
*47 _059_
*48 _060_
*49 _061_
*50 _062_
*51 _063_
*52 _064_
*53 _065_
*54 _066_
*55 _067_
*56 _068_
*57 _069_
*58 _070_
*59 _071_
*60 _072_
*61 _073_
*62 _074_
*63 _075_
*64 _076_
*65 _077_
*66 _078_
*67 _079_
*68 _080_
*69 _081_
*70 _082_
*71 _083_
*72 _084_
*73 _085_
*74 _086_
*75 _087_
*76 _088_
*77 _089_
*78 _090_
*79 _091_
*80 _092_
*81 _093_
*82 _094_
*83 _095_
*84 _096_
*85 _097_
*86 _098_
*87 _099_
*88 _100_
*89 _101_
*90 _102_
*91 _103_
*92 _104_
*93 _105_
*94 _106_
*95 _107_
*96 _108_
*97 _109_
*98 _110_
*99 _111_
*100 _112_
*101 _113_
*102 clknet_0_clk
*103 clknet_2_0__leaf_clk
*104 clknet_2_1__leaf_clk
*105 clknet_2_2__leaf_clk
*106 clknet_2_3__leaf_clk
*107 counter_PWM\[0\]
*108 counter_PWM\[1\]
*109 counter_PWM\[2\]
*110 counter_PWM\[3\]
*111 counter_debounce\[0\]
*112 counter_debounce\[10\]
*113 counter_debounce\[11\]
*114 counter_debounce\[12\]
*115 counter_debounce\[13\]
*116 counter_debounce\[14\]
*117 counter_debounce\[15\]
*118 counter_debounce\[16\]
*119 counter_debounce\[17\]
*120 counter_debounce\[18\]
*121 counter_debounce\[19\]
*122 counter_debounce\[1\]
*123 counter_debounce\[20\]
*124 counter_debounce\[21\]
*125 counter_debounce\[22\]
*126 counter_debounce\[23\]
*127 counter_debounce\[24\]
*128 counter_debounce\[25\]
*129 counter_debounce\[26\]
*130 counter_debounce\[27\]
*131 counter_debounce\[2\]
*132 counter_debounce\[3\]
*133 counter_debounce\[4\]
*134 counter_debounce\[5\]
*135 counter_debounce\[6\]
*136 counter_debounce\[7\]
*137 counter_debounce\[8\]
*138 counter_debounce\[9\]
*139 net1
*140 net10
*141 net11
*142 net12
*143 net13
*144 net14
*145 net15
*146 net16
*147 net17
*148 net18
*149 net19
*150 net2
*151 net20
*152 net21
*153 net22
*154 net23
*155 net24
*156 net25
*157 net26
*158 net27
*159 net28
*160 net29
*161 net3
*162 net30
*163 net31
*164 net32
*165 net33
*166 net34
*167 net35
*168 net36
*169 net37
*170 net38
*171 net39
*172 net4
*173 net40
*174 net41
*175 net42
*176 net43
*177 net44
*178 net5
*179 net6
*180 net7
*181 net8
*182 net9
*183 FILLER_0_0_100
*184 FILLER_0_0_113
*185 FILLER_0_0_50
*186 FILLER_0_0_54
*187 FILLER_0_0_60
*188 FILLER_0_0_78
*189 FILLER_0_0_88
*190 FILLER_0_0_9
*191 FILLER_0_10_101
*192 FILLER_0_10_113
*193 FILLER_0_10_121
*194 FILLER_0_10_19
*195 FILLER_0_10_27
*196 FILLER_0_10_29
*197 FILLER_0_10_33
*198 FILLER_0_10_38
*199 FILLER_0_10_42
*200 FILLER_0_10_80
*201 FILLER_0_11_110
*202 FILLER_0_11_113
*203 FILLER_0_11_121
*204 FILLER_0_11_3
*205 FILLER_0_11_76
*206 FILLER_0_11_98
*207 FILLER_0_12_103
*208 FILLER_0_12_115
*209 FILLER_0_12_123
*210 FILLER_0_12_14
*211 FILLER_0_12_22
*212 FILLER_0_12_3
*213 FILLER_0_12_45
*214 FILLER_0_12_69
*215 FILLER_0_12_7
*216 FILLER_0_12_79
*217 FILLER_0_12_83
*218 FILLER_0_12_91
*219 FILLER_0_13_106
*220 FILLER_0_13_113
*221 FILLER_0_13_121
*222 FILLER_0_13_15
*223 FILLER_0_13_21
*224 FILLER_0_13_3
*225 FILLER_0_13_60
*226 FILLER_0_13_70
*227 FILLER_0_13_82
*228 FILLER_0_13_94
*229 FILLER_0_14_109
*230 FILLER_0_14_11
*231 FILLER_0_14_121
*232 FILLER_0_14_29
*233 FILLER_0_14_3
*234 FILLER_0_14_35
*235 FILLER_0_14_76
*236 FILLER_0_14_85
*237 FILLER_0_14_97
*238 FILLER_0_15_105
*239 FILLER_0_15_111
*240 FILLER_0_15_113
*241 FILLER_0_15_121
*242 FILLER_0_15_15
*243 FILLER_0_15_23
*244 FILLER_0_15_3
*245 FILLER_0_15_45
*246 FILLER_0_15_49
*247 FILLER_0_15_53
*248 FILLER_0_15_57
*249 FILLER_0_15_69
*250 FILLER_0_15_81
*251 FILLER_0_15_93
*252 FILLER_0_16_109
*253 FILLER_0_16_121
*254 FILLER_0_16_15
*255 FILLER_0_16_27
*256 FILLER_0_16_29
*257 FILLER_0_16_3
*258 FILLER_0_16_41
*259 FILLER_0_16_58
*260 FILLER_0_16_62
*261 FILLER_0_16_79
*262 FILLER_0_16_83
*263 FILLER_0_16_85
*264 FILLER_0_16_97
*265 FILLER_0_17_109
*266 FILLER_0_17_113
*267 FILLER_0_17_121
*268 FILLER_0_17_15
*269 FILLER_0_17_27
*270 FILLER_0_17_3
*271 FILLER_0_17_35
*272 FILLER_0_17_85
*273 FILLER_0_17_97
*274 FILLER_0_18_109
*275 FILLER_0_18_121
*276 FILLER_0_18_15
*277 FILLER_0_18_27
*278 FILLER_0_18_29
*279 FILLER_0_18_3
*280 FILLER_0_18_85
*281 FILLER_0_18_97
*282 FILLER_0_19_101
*283 FILLER_0_19_109
*284 FILLER_0_19_113
*285 FILLER_0_19_121
*286 FILLER_0_19_15
*287 FILLER_0_19_27
*288 FILLER_0_19_3
*289 FILLER_0_19_54
*290 FILLER_0_19_57
*291 FILLER_0_19_77
*292 FILLER_0_19_89
*293 FILLER_0_1_104
*294 FILLER_0_1_113
*295 FILLER_0_1_121
*296 FILLER_0_1_3
*297 FILLER_0_1_65
*298 FILLER_0_1_69
*299 FILLER_0_1_92
*300 FILLER_0_20_109
*301 FILLER_0_20_113
*302 FILLER_0_20_15
*303 FILLER_0_20_27
*304 FILLER_0_20_29
*305 FILLER_0_20_3
*306 FILLER_0_20_44
*307 FILLER_0_20_48
*308 FILLER_0_20_55
*309 FILLER_0_20_57
*310 FILLER_0_20_64
*311 FILLER_0_20_76
*312 FILLER_0_20_85
*313 FILLER_0_20_97
*314 FILLER_0_2_102
*315 FILLER_0_2_114
*316 FILLER_0_2_122
*317 FILLER_0_2_27
*318 FILLER_0_2_43
*319 FILLER_0_2_73
*320 FILLER_0_2_82
*321 FILLER_0_2_91
*322 FILLER_0_3_105
*323 FILLER_0_3_111
*324 FILLER_0_3_113
*325 FILLER_0_3_121
*326 FILLER_0_3_3
*327 FILLER_0_3_74
*328 FILLER_0_4_100
*329 FILLER_0_4_112
*330 FILLER_0_4_19
*331 FILLER_0_4_64
*332 FILLER_0_5_102
*333 FILLER_0_5_110
*334 FILLER_0_5_113
*335 FILLER_0_5_121
*336 FILLER_0_5_3
*337 FILLER_0_5_69
*338 FILLER_0_5_86
*339 FILLER_0_5_9
*340 FILLER_0_6_113
*341 FILLER_0_6_121
*342 FILLER_0_6_3
*343 FILLER_0_6_82
*344 FILLER_0_6_85
*345 FILLER_0_7_111
*346 FILLER_0_7_113
*347 FILLER_0_7_121
*348 FILLER_0_7_3
*349 FILLER_0_7_73
*350 FILLER_0_8_10
*351 FILLER_0_8_109
*352 FILLER_0_8_121
*353 FILLER_0_8_3
*354 FILLER_0_8_34
*355 FILLER_0_8_85
*356 FILLER_0_8_97
*357 FILLER_0_9_110
*358 FILLER_0_9_113
*359 FILLER_0_9_121
*360 FILLER_0_9_3
*361 FILLER_0_9_52
*362 FILLER_0_9_9
*363 PHY_0
*364 PHY_1
*365 PHY_10
*366 PHY_11
*367 PHY_12
*368 PHY_13
*369 PHY_14
*370 PHY_15
*371 PHY_16
*372 PHY_17
*373 PHY_18
*374 PHY_19
*375 PHY_2
*376 PHY_20
*377 PHY_21
*378 PHY_22
*379 PHY_23
*380 PHY_24
*381 PHY_25
*382 PHY_26
*383 PHY_27
*384 PHY_28
*385 PHY_29
*386 PHY_3
*387 PHY_30
*388 PHY_31
*389 PHY_32
*390 PHY_33
*391 PHY_34
*392 PHY_35
*393 PHY_36
*394 PHY_37
*395 PHY_38
*396 PHY_39
*397 PHY_4
*398 PHY_40
*399 PHY_41
*400 PHY_5
*401 PHY_6
*402 PHY_7
*403 PHY_8
*404 PHY_9
*405 TAP_42
*406 TAP_43
*407 TAP_44
*408 TAP_45
*409 TAP_46
*410 TAP_47
*411 TAP_48
*412 TAP_49
*413 TAP_50
*414 TAP_51
*415 TAP_52
*416 TAP_53
*417 TAP_54
*418 TAP_55
*419 TAP_56
*420 TAP_57
*421 TAP_58
*422 TAP_59
*423 TAP_60
*424 TAP_61
*425 TAP_62
*426 TAP_63
*427 TAP_64
*428 TAP_65
*429 TAP_66
*430 TAP_67
*431 TAP_68
*432 TAP_69
*433 TAP_70
*434 TAP_71
*435 TAP_72
*436 TAP_73
*437 TAP_74
*438 TAP_75
*439 TAP_76
*440 TAP_77
*441 TAP_78
*442 TAP_79
*443 TAP_80
*444 TAP_81
*445 TAP_82
*446 TAP_83
*447 TAP_84
*448 TAP_85
*449 TAP_86
*450 TAP_87
*451 _114_
*452 _115_
*453 _116_
*454 _117_
*455 _118_
*456 _119_
*457 _120_
*458 _121_
*459 _122_
*460 _123_
*461 _124_
*462 _125_
*463 _126_
*464 _127_
*465 _128_
*466 _129_
*467 _130_
*468 _131_
*469 _132_
*470 _133_
*471 _134_
*472 _135_
*473 _136_
*474 _137_
*475 _138_
*476 _139_
*477 _140_
*478 _141_
*479 _142_
*480 _143_
*481 _144_
*482 _145_
*483 _146_
*484 _147_
*485 _148_
*486 _149_
*487 _150_
*488 _151_
*489 _152_
*490 _153_
*491 _154_
*492 _155_
*493 _156_
*494 _157_
*495 _158_
*496 _159_
*497 _160_
*498 _161_
*499 _162_
*500 _163_
*501 _164_
*502 _165_
*503 _166_
*504 _167_
*505 _168_
*506 _169_
*507 _170_
*508 _171_
*509 _172_
*510 _173_
*511 _174_
*512 _175_
*513 _176_
*514 _177_
*515 _178_
*516 _179_
*517 _180_
*518 _181_
*519 _182_
*520 _183_
*521 _184_
*522 _185_
*523 _186_
*524 _187_
*525 _188_
*526 _189_
*527 _190_
*528 _191_
*529 _192_
*530 _193_
*531 _194_
*532 _195_
*533 _196_
*534 _197_
*535 _198_
*536 _199_
*537 _200_
*538 _201_
*539 _202_
*540 _203_
*541 _204_
*542 _205_
*543 _206_
*544 _207_
*545 _208_
*546 _209_
*547 _210_
*548 _211_
*549 _212_
*550 _213_
*551 _213__31
*552 _214_
*553 _214__30
*554 _215_
*555 _215__29
*556 _216_
*557 _216__28
*558 _217_
*559 _217__27
*560 _218_
*561 _218__26
*562 _219_
*563 _219__25
*564 _220_
*565 _220__24
*566 _221_
*567 _221__23
*568 _222_
*569 _222__22
*570 _223_
*571 _223__21
*572 _224_
*573 _224__20
*574 _225_
*575 _225__19
*576 _226_
*577 _226__18
*578 _227_
*579 _227__17
*580 _228_
*581 _228__16
*582 _229_
*583 _229__15
*584 _230_
*585 _230__14
*586 _231_
*587 _231__13
*588 _232_
*589 _232__12
*590 _233_
*591 _233__11
*592 _234_
*593 _234__10
*594 _235_
*595 _235__9
*596 _236_
*597 _236__8
*598 _237_
*599 _237__7
*600 _238_
*601 _238__6
*602 _239_
*603 _239__5
*604 _240_
*605 _241_
*606 clkbuf_0_clk
*607 clkbuf_2_0__f_clk
*608 clkbuf_2_1__f_clk
*609 clkbuf_2_2__f_clk
*610 clkbuf_2_3__f_clk
*611 hold1
*612 hold10
*613 hold11
*614 hold12
*615 hold13
*616 hold2
*617 hold3
*618 hold4
*619 hold5
*620 hold6
*621 hold7
*622 hold8
*623 hold9
*624 input1
*625 input2
*626 max_cap4
*627 output3

*PORTS
PWM_OUT O
clk I
decrease_duty I
increase_duty I

*D_NET *1 0.00132797
*CONN
*P PWM_OUT O
*I *627:X O *D sky130_fd_sc_hd__clkbuf_4
*CAP
1 PWM_OUT 0.000663984
2 *627:X 0.000663984
*RES
1 *627:X PWM_OUT 14.925 
*END

*D_NET *4 0.00657816
*CONN
*P clk I
*I *606:A I *D sky130_fd_sc_hd__clkbuf_16
*CAP
1 clk 0.00251684
2 *606:A 0.00251684
3 *606:A *462:A 0
4 *606:A *463:A 0.000225995
5 *606:A *463:B 7.03219e-05
6 *606:A *535:A 0.000140912
7 *606:A *558:D 0
8 *606:A *596:D 0.000502213
9 *606:A *602:D 0.000136679
10 *606:A *78:10 0.00022448
11 *606:A *106:60 0
12 *606:A *106:95 0
13 *606:A *120:12 0.000243879
*RES
1 clk *606:A 44.0765 
*END

*D_NET *5 0.00136693
*CONN
*P decrease_duty I
*I *624:A I *D sky130_fd_sc_hd__clkbuf_1
*CAP
1 decrease_duty 0.000683464
2 *624:A 0.000683464
*RES
1 decrease_duty *624:A 15.525 
*END

*D_NET *6 0.00107965
*CONN
*P increase_duty I
*I *625:A I *D sky130_fd_sc_hd__clkbuf_1
*CAP
1 increase_duty 0.000539823
2 *625:A 0.000539823
*RES
1 increase_duty *625:A 12.2654 
*END

*D_NET *7 0.00799368
*CONN
*I *619:A I *D sky130_fd_sc_hd__dlygate4sd3_1
*I *501:B I *D sky130_fd_sc_hd__nand2_1
*I *516:B1 I *D sky130_fd_sc_hd__a22oi_2
*I *504:B1 I *D sky130_fd_sc_hd__a21o_1
*I *456:A2 I *D sky130_fd_sc_hd__a22o_1
*I *493:A1 I *D sky130_fd_sc_hd__o31a_1
*I *544:Q O *D sky130_fd_sc_hd__dfxtp_2
*CAP
1 *619:A 9.06244e-05
2 *501:B 2.38793e-05
3 *516:B1 7.31364e-05
4 *504:B1 0.000405968
5 *456:A2 0.000252226
6 *493:A1 1.17375e-05
7 *544:Q 3.45774e-05
8 *7:67 0.00010377
9 *7:33 0.00133782
10 *7:29 0.000886241
11 *7:14 0.000678263
12 *7:6 0.000591869
13 *456:A2 *456:A1 3.60484e-05
14 *456:A2 *456:B1 2.33865e-05
15 *456:A2 *456:B2 0.000147643
16 *456:A2 *499:A2 2.06147e-05
17 *456:A2 *499:B1 4.41233e-05
18 *456:A2 *514:A2 1.22325e-05
19 *456:A2 *611:A 8.30272e-05
20 *456:A2 *8:25 0
21 *456:A2 *10:49 0.000114734
22 *456:A2 *110:61 1.18883e-05
23 *493:A1 *494:D 4.82919e-05
24 *493:A1 *515:C 5.83121e-06
25 *493:A1 *46:36 2.16917e-05
26 *501:B *516:B2 5.83121e-06
27 *501:B *526:B 4.66108e-05
28 *504:B1 *485:A 1.33293e-05
29 *504:B1 *504:A1 6.95784e-05
30 *504:B1 *504:A2 0.000684921
31 *516:B1 *516:B2 0.000194629
32 *516:B1 *526:C 4.76152e-05
33 *516:B1 *545:CLK 0.000135792
34 *619:A *497:B 3.59531e-06
35 *619:A *9:63 2.99518e-06
36 *619:A *9:74 0
37 *619:A *50:12 6.90254e-05
38 *619:A *52:20 2.39133e-05
39 *7:6 *522:B1 1.56428e-05
40 *7:14 *495:A2 1.30972e-05
41 *7:14 *511:B 1.29133e-05
42 *7:14 *516:A1 4.295e-05
43 *7:14 *522:B1 0.000110709
44 *7:14 *10:30 0.000149473
45 *7:14 *10:39 5.02126e-06
46 *7:14 *50:12 0
47 *7:14 *70:12 0.000108871
48 *7:14 *104:32 4.28112e-06
49 *7:29 *495:A2 8.41703e-06
50 *7:29 *10:45 0.000262174
51 *7:33 *528:B 0
52 *7:33 *10:45 0.000874724
53 *7:67 *516:B2 9.98943e-06
54 *7:67 *526:C 1.79536e-05
*RES
1 *544:Q *7:6 2.05 
2 *7:6 *7:14 9.92 
3 *7:14 *493:A1 4.05 
4 *7:14 *7:29 1.17837 
5 *7:29 *7:33 1.87813 
6 *7:33 *456:A2 9.9 
7 *7:33 *504:B1 11.31 
8 *7:29 *7:67 0.7325 
9 *7:67 *516:B1 6 
10 *7:67 *501:B 4.05 
11 *7:6 *619:A 7.235 
*END

*D_NET *8 0.012981
*CONN
*I *491:B I *D sky130_fd_sc_hd__or2_1
*I *503:B I *D sky130_fd_sc_hd__nand2_1
*I *516:A2 I *D sky130_fd_sc_hd__a22oi_2
*I *502:A1 I *D sky130_fd_sc_hd__a21o_1
*I *505:C I *D sky130_fd_sc_hd__and3_1
*I *454:A I *D sky130_fd_sc_hd__or2_1
*I *456:B2 I *D sky130_fd_sc_hd__a22o_1
*I *499:B1 I *D sky130_fd_sc_hd__a211oi_1
*I *545:Q O *D sky130_fd_sc_hd__dfxtp_2
*CAP
1 *491:B 8.69126e-05
2 *503:B 0.000805833
3 *516:A2 4.03875e-05
4 *502:A1 6.62825e-05
5 *505:C 0
6 *454:A 0.000882011
7 *456:B2 0.000231552
8 *499:B1 0.000333364
9 *545:Q 0
10 *8:108 0.00157215
11 *8:91 0.00109293
12 *8:68 0.00062161
13 *8:61 0.000220119
14 *8:42 0.000919947
15 *8:25 0.000360276
16 *8:4 0.000462089
17 *454:A *480:A 0.000115132
18 *454:A *480:B 0.000498903
19 *454:A *483:A 2.06366e-05
20 *454:A *483:B 2.85623e-05
21 *454:A *505:A 4.77769e-05
22 *454:A *506:A3 6.93801e-05
23 *454:A *540:D 3.64077e-05
24 *454:A *541:CLK 0.000305675
25 *454:A *616:A 2.69153e-05
26 *454:A *107:10 2.59925e-05
27 *454:A *107:20 1.97429e-05
28 *454:A *108:6 4.66108e-05
29 *454:A *108:8 0.000232421
30 *454:A *108:48 0
31 *456:B2 *456:A1 3.0933e-05
32 *456:B2 *481:A2 5.76951e-06
33 *456:B2 *499:A1 6.90254e-05
34 *456:B2 *611:A 2.23253e-05
35 *456:B2 *110:61 1.98145e-05
36 *491:B *520:A2 5.21761e-05
37 *491:B *104:73 7.87472e-05
38 *499:B1 *499:A1 8.23457e-05
39 *499:B1 *499:A2 0
40 *499:B1 *499:C1 4.66108e-05
41 *499:B1 *504:A1 8.65961e-05
42 *499:B1 *510:C 0.000221489
43 *499:B1 *523:D 1.15688e-05
44 *499:B1 *103:71 0.000198409
45 *502:A1 *456:A1 1.52352e-05
46 *502:A1 *505:B 7.46733e-05
47 *502:A1 *506:A2 6.88421e-05
48 *503:B *503:A 0.000409307
49 *503:B *520:A2 1.0555e-05
50 *503:B *521:D 3.98635e-05
51 *503:B *531:A1 0.000244911
52 *503:B *532:S 0.000222832
53 *503:B *10:20 7.06865e-05
54 *503:B *104:73 3.44436e-05
55 *503:B *172:18 9.67081e-06
56 *516:A2 *79:10 2.21158e-05
57 *8:25 *499:A1 0.00017815
58 *8:25 *504:A1 4.82863e-05
59 *8:25 *611:A 1.74776e-05
60 *8:61 *505:A 5.67098e-05
61 *8:68 *505:A 0.000254507
62 *8:91 *505:A 8.23457e-05
63 *8:91 *516:A1 6.41983e-05
64 *8:91 *526:B 4.89144e-05
65 *8:91 *526:C 0.000258074
66 *8:91 *526:D 9.84609e-06
67 *8:91 *70:12 4.29289e-05
68 *8:91 *79:10 0.000171086
69 *8:108 *496:B 1.56428e-05
70 *8:108 *496:C 2.39856e-05
71 *8:108 *496:D 4.7003e-05
72 *8:108 *11:36 4.38036e-05
73 *8:108 *11:40 2.78377e-05
74 *8:108 *11:111 2.93836e-05
75 *8:108 *51:58 5.12969e-06
76 *8:108 *52:14 2.49909e-05
77 *8:108 *79:10 2.04063e-05
78 *456:A2 *456:B2 0.000147643
79 *456:A2 *499:B1 4.41233e-05
80 *456:A2 *8:25 0
*RES
1 *545:Q *8:4 1.6 
2 *8:4 *499:B1 12.14 
3 *8:4 *8:25 4.595 
4 *8:25 *456:B2 7.515 
5 *8:25 *8:42 2 
6 *8:42 *454:A 21.545 
7 *8:42 *8:61 0.5475 
8 *8:61 *505:C 1.6 
9 *8:61 *8:68 2.4225 
10 *8:68 *502:A1 6.92 
11 *8:68 *8:91 7.68 
12 *8:91 *516:A2 2.59 
13 *8:91 *8:108 10.145 
14 *8:108 *503:B 15.1359 
15 *8:108 *491:B 5.49 
*END

*D_NET *9 0.0103511
*CONN
*I *519:A1 I *D sky130_fd_sc_hd__o21a_1
*I *513:A1_N I *D sky130_fd_sc_hd__o2bb2ai_2
*I *491:A I *D sky130_fd_sc_hd__or2_1
*I *620:A I *D sky130_fd_sc_hd__dlygate4sd3_1
*I *499:A1 I *D sky130_fd_sc_hd__a211oi_1
*I *457:A1 I *D sky130_fd_sc_hd__a22o_1
*I *458:A2 I *D sky130_fd_sc_hd__o221a_1
*I *546:Q O *D sky130_fd_sc_hd__dfxtp_2
*CAP
1 *519:A1 7.58724e-05
2 *513:A1_N 0.000363699
3 *491:A 1.8095e-05
4 *620:A 0
5 *499:A1 0.000652689
6 *457:A1 0
7 *458:A2 0.000225665
8 *546:Q 0.000293822
9 *9:74 0.000702183
10 *9:70 0.000413549
11 *9:63 0.000130269
12 *9:16 0.00166942
13 *9:10 0.00119787
14 *458:A2 *452:A 0.000162311
15 *458:A2 *454:B 1.19928e-05
16 *458:A2 *457:A2 0.00012508
17 *458:A2 *457:B1 0.000105611
18 *458:A2 *487:A1 8.9416e-05
19 *458:A2 *88:10 6.03272e-05
20 *458:A2 *88:16 1.91597e-05
21 *458:A2 *107:39 1.17114e-05
22 *491:A *493:B1 8.49205e-05
23 *491:A *494:A 8.49205e-05
24 *499:A1 *457:A2 8.7152e-06
25 *499:A1 *457:B2 7.1624e-05
26 *499:A1 *472:B 0.000202806
27 *499:A1 *499:C1 4.49411e-05
28 *499:A1 *504:A1 0.00029222
29 *499:A1 *510:B 3.77199e-05
30 *499:A1 *550:CLK 1.10359e-05
31 *499:A1 *58:16 0.000105418
32 *499:A1 *81:26 8.24993e-05
33 *499:A1 *102:27 0
34 *499:A1 *103:71 7.3068e-05
35 *513:A1_N *513:A2_N 1.88656e-05
36 *513:A1_N *529:D 0
37 *513:A1_N *10:115 8.30201e-05
38 *513:A1_N *63:12 0.000165759
39 *513:A1_N *104:73 7.14325e-05
40 *519:A1 *10:20 5.83121e-06
41 *519:A1 *52:82 4.11718e-05
42 *519:A1 *104:58 8.23457e-05
43 *9:10 *497:B 0
44 *9:10 *507:A 4.05358e-05
45 *9:10 *531:A2 0
46 *9:10 *547:D 0
47 *9:16 *458:B1 1.42916e-05
48 *9:16 *58:16 0.000335631
49 *9:16 *67:18 6.61583e-05
50 *9:16 *68:18 0.000822501
51 *9:63 *104:58 0.000233576
52 *9:70 *104:58 4.77719e-05
53 *9:74 *508:A 0
54 *9:74 *520:B1 1.71485e-05
55 *9:74 *522:A1_N 0.00011178
56 *9:74 *531:A2 0.000129376
57 *9:74 *10:115 2.17353e-05
58 *9:74 *11:34 0.000132462
59 *9:74 *104:71 2.92841e-05
60 *9:74 *104:73 0.00011931
61 *456:B2 *499:A1 6.90254e-05
62 *499:B1 *499:A1 8.23457e-05
63 *619:A *9:63 2.99518e-06
64 *619:A *9:74 0
65 *8:25 *499:A1 0.00017815
*RES
1 *546:Q *9:10 7.6875 
2 *9:10 *9:16 3.07733 
3 *9:16 *458:A2 8.385 
4 *9:16 *457:A1 3.6 
5 *9:16 *499:A1 17.4 
6 *9:10 *9:63 4.4075 
7 *9:63 *620:A 1.6 
8 *9:63 *9:70 0.45 
9 *9:70 *9:74 8.48 
10 *9:74 *491:A 4.395 
11 *9:74 *513:A1_N 9.12 
12 *9:70 *519:A1 3.085 
*END

*D_NET *10 0.0170509
*CONN
*I *521:B I *D sky130_fd_sc_hd__nand4_1
*I *495:A2 I *D sky130_fd_sc_hd__a21oi_4
*I *527:B1 I *D sky130_fd_sc_hd__o21a_1
*I *529:C I *D sky130_fd_sc_hd__nor4_1
*I *520:B1 I *D sky130_fd_sc_hd__a31o_1
*I *499:A2 I *D sky130_fd_sc_hd__a211oi_1
*I *458:B1 I *D sky130_fd_sc_hd__o221a_1
*I *459:A2 I *D sky130_fd_sc_hd__a21o_1
*I *493:A2 I *D sky130_fd_sc_hd__o31a_1
*I *547:Q O *D sky130_fd_sc_hd__dfxtp_4
*CAP
1 *521:B 0
2 *495:A2 0.000143842
3 *527:B1 0.00050076
4 *529:C 0
5 *520:B1 0.000479839
6 *499:A2 0.00024001
7 *458:B1 0.000433875
8 *459:A2 3.63911e-05
9 *493:A2 0
10 *547:Q 0.000370286
11 *10:115 0.000637665
12 *10:90 0.00114368
13 *10:49 0.000918992
14 *10:45 0.00167359
15 *10:41 0.0015118
16 *10:39 0.000151517
17 *10:30 0.000620713
18 *10:20 0.000983324
19 *458:B1 *458:B2 5.92535e-05
20 *458:B1 *459:A1 0.000112349
21 *458:B1 *459:B1 4.38278e-05
22 *458:B1 *482:B 0
23 *458:B1 *484:B 0.000127212
24 *458:B1 *487:A1 7.32157e-05
25 *458:B1 *58:16 0.000111752
26 *458:B1 *107:39 6.65855e-05
27 *459:A2 *459:A1 0.000122337
28 *459:A2 *459:B1 4.38278e-05
29 *495:A2 *495:A1 0.000101255
30 *495:A2 *500:C 6.02202e-05
31 *495:A2 *510:A 6.97202e-05
32 *495:A2 *515:D 0
33 *495:A2 *45:59 0
34 *495:A2 *45:67 0.000136104
35 *499:A2 *483:A 0
36 *499:A2 *523:C 4.24457e-05
37 *499:A2 *523:D 4.19797e-05
38 *499:A2 *528:A 9.12494e-06
39 *499:A2 *528:B 1.66439e-05
40 *499:A2 *126:10 9.044e-05
41 *520:B1 *494:A 0.000204021
42 *520:B1 *508:A 1.22824e-05
43 *520:B1 *509:A 7.81845e-05
44 *520:B1 *520:A1 4.60143e-06
45 *520:B1 *47:6 8.38605e-05
46 *520:B1 *51:58 1.75875e-05
47 *520:B1 *172:18 7.23533e-05
48 *527:B1 *479:A 0.00012398
49 *527:B1 *490:A 4.55864e-06
50 *527:B1 *512:A 0.000258474
51 *527:B1 *513:B1 1.11749e-05
52 *527:B1 *513:B2 0.000324463
53 *527:B1 *527:A2 0.000125859
54 *527:B1 *529:A 0
55 *527:B1 *530:A1 2.5238e-05
56 *527:B1 *530:A2 7.67415e-06
57 *527:B1 *539:CLK 4.77757e-05
58 *527:B1 *13:12 5.14672e-05
59 *527:B1 *38:27 5.00404e-05
60 *527:B1 *63:12 6.61627e-05
61 *527:B1 *104:84 0.000159506
62 *10:20 *503:A 0
63 *10:20 *521:D 0
64 *10:20 *530:B2 1.4399e-05
65 *10:20 *531:A1 7.06865e-05
66 *10:20 *547:CLK 4.0082e-05
67 *10:20 *548:CLK 1.96856e-05
68 *10:20 *11:24 0.000411876
69 *10:20 *52:82 6.7795e-06
70 *10:20 *104:71 8.88181e-05
71 *10:20 *104:73 1.55955e-05
72 *10:30 *495:A1 4.55864e-06
73 *10:30 *522:B1 0.000325183
74 *10:30 *522:B2 0.000121038
75 *10:30 *531:A2 7.81746e-06
76 *10:30 *11:24 8.23457e-05
77 *10:30 *11:34 0.000118081
78 *10:30 *11:52 0
79 *10:30 *50:12 0
80 *10:30 *50:40 0.00027174
81 *10:30 *79:10 0
82 *10:39 *495:A1 9.5799e-06
83 *10:45 *514:B1 0
84 *10:45 *528:B 0
85 *10:45 *67:18 0
86 *10:49 *481:A1 0.000104274
87 *10:49 *481:B1 0.000175846
88 *10:49 *483:A 0
89 *10:49 *484:B 0.000252734
90 *10:49 *616:A 3.53536e-05
91 *10:49 *110:29 0.000180682
92 *10:90 *527:A2 0
93 *10:90 *51:35 7.22909e-05
94 *10:115 *508:A 5.65901e-05
95 *10:115 *529:D 0
96 *456:A2 *499:A2 2.06147e-05
97 *456:A2 *10:49 0.000114734
98 *499:B1 *499:A2 0
99 *503:B *10:20 7.06865e-05
100 *513:A1_N *10:115 8.30201e-05
101 *519:A1 *10:20 5.83121e-06
102 *7:14 *495:A2 1.30972e-05
103 *7:14 *10:30 0.000149473
104 *7:14 *10:39 5.02126e-06
105 *7:29 *495:A2 8.41703e-06
106 *7:29 *10:45 0.000262174
107 *7:33 *10:45 0.000874724
108 *9:16 *458:B1 1.42916e-05
109 *9:74 *520:B1 1.71485e-05
110 *9:74 *10:115 2.17353e-05
*RES
1 *547:Q *10:20 16.515 
2 *10:20 *10:30 12.89 
3 *10:30 *493:A2 3.6 
4 *10:30 *10:39 0.2325 
5 *10:39 *10:41 0.5 
6 *10:41 *10:45 2.57733 
7 *10:45 *10:49 12.1775 
8 *10:49 *459:A2 2.74 
9 *10:49 *458:B1 10.8657 
10 *10:45 *499:A2 8.1675 
11 *10:41 *10:90 1.35373 
12 *10:90 *520:B1 14.5225 
13 *10:90 *10:115 4.5275 
14 *10:115 *529:C 1.6 
15 *10:115 *527:B1 22.125 
16 *10:39 *495:A2 7.3725 
17 *10:20 *521:B 1.6 
*END

*D_NET *11 0.0104884
*CONN
*I *532:A0 I *D sky130_fd_sc_hd__mux2_1
*I *521:A I *D sky130_fd_sc_hd__nand4_1
*I *520:A1 I *D sky130_fd_sc_hd__a31o_1
*I *509:A I *D sky130_fd_sc_hd__inv_2
*I *508:A I *D sky130_fd_sc_hd__nand4_1
*I *496:A I *D sky130_fd_sc_hd__nand4_4
*I *500:A I *D sky130_fd_sc_hd__nand4_2
*I *515:A I *D sky130_fd_sc_hd__nand4_1
*I *526:B I *D sky130_fd_sc_hd__nand4_1
*I *548:Q O *D sky130_fd_sc_hd__dfxtp_2
*CAP
1 *532:A0 0
2 *521:A 1.29645e-05
3 *520:A1 2.01604e-05
4 *509:A 0.000464046
5 *508:A 0.00023714
6 *496:A 0
7 *500:A 7.42972e-05
8 *515:A 0
9 *526:B 0.000324615
10 *548:Q 0.000226194
11 *11:111 0.000634993
12 *11:54 0.000350886
13 *11:52 0.000493817
14 *11:40 0.000529968
15 *11:36 0.000483125
16 *11:34 0.000416514
17 *11:24 0.000539548
18 *11:12 0.000596316
19 *500:A *511:B 0.00015837
20 *500:A *515:D 7.15997e-07
21 *500:A *526:C 5.03546e-05
22 *500:A *45:110 0.000112284
23 *508:A *529:D 4.88568e-05
24 *508:A *52:14 7.03276e-05
25 *508:A *67:12 0.000237016
26 *509:A *490:B 0.000310241
27 *509:A *512:A 0.000164644
28 *509:A *513:B2 1.45807e-05
29 *509:A *521:D 0.000112452
30 *509:A *549:CLK 1.08758e-05
31 *509:A *612:A 0.000283157
32 *509:A *37:35 4.66108e-05
33 *509:A *38:14 8.24134e-05
34 *509:A *38:27 2.87688e-05
35 *509:A *51:37 0.000266167
36 *509:A *51:58 8.54402e-07
37 *509:A *172:12 1.71207e-05
38 *509:A *172:18 0.000126038
39 *521:A *522:A2_N 5.12969e-06
40 *521:A *548:CLK 8.87019e-06
41 *526:B *515:B 3.64998e-06
42 *526:B *516:B2 0.000184016
43 *526:B *526:A 5.79537e-05
44 *526:B *545:CLK 0.000130904
45 *11:12 *532:A1 0.000235378
46 *11:24 *503:A 5.83268e-05
47 *11:24 *521:C 1.14169e-05
48 *11:24 *521:D 1.20052e-05
49 *11:24 *522:A2_N 9.47972e-06
50 *11:24 *532:A1 4.89395e-05
51 *11:24 *532:S 6.52347e-05
52 *11:24 *548:CLK 5.07166e-05
53 *11:24 *52:82 2.83649e-05
54 *11:24 *72:8 9.84609e-06
55 *11:34 *496:D 3.50152e-06
56 *11:34 *522:A2_N 4.01243e-05
57 *11:34 *531:A2 1.00404e-05
58 *11:36 *496:C 4.66108e-05
59 *11:40 *496:B 4.77769e-05
60 *11:40 *496:C 8.35118e-05
61 *11:40 *79:10 4.77769e-05
62 *11:52 *493:A3 4.99619e-05
63 *11:52 *494:D 8.43946e-05
64 *11:52 *515:B 1.56428e-05
65 *11:52 *515:C 1.68901e-05
66 *11:52 *515:D 1.34591e-05
67 *11:52 *545:CLK 9.78874e-07
68 *11:52 *47:6 7.49327e-05
69 *11:52 *79:10 0.000136747
70 *11:54 *515:B 1.56428e-05
71 *11:111 *496:D 9.28568e-05
72 *11:111 *522:A1_N 0.000120719
73 *11:111 *51:58 2.71847e-05
74 *501:B *526:B 4.66108e-05
75 *520:B1 *508:A 1.22824e-05
76 *520:B1 *509:A 7.81845e-05
77 *520:B1 *520:A1 4.60143e-06
78 *8:91 *526:B 4.89144e-05
79 *8:108 *11:36 4.38036e-05
80 *8:108 *11:40 2.78377e-05
81 *8:108 *11:111 2.93836e-05
82 *9:74 *508:A 0
83 *9:74 *11:34 0.000132462
84 *10:20 *11:24 0.000411876
85 *10:30 *11:24 8.23457e-05
86 *10:30 *11:34 0.000118081
87 *10:30 *11:52 0
88 *10:115 *508:A 5.65901e-05
*RES
1 *548:Q *11:12 9.665 
2 *11:12 *11:24 12.055 
3 *11:24 *11:34 7.135 
4 *11:34 *11:36 1.83 
5 *11:36 *11:40 2.535 
6 *11:40 *11:52 10.255 
7 *11:52 *11:54 0.45 
8 *11:54 *526:B 10.64 
9 *11:54 *515:A 1.6 
10 *11:52 *500:A 7.85 
11 *11:40 *496:A 1.6 
12 *11:36 *508:A 10.595 
13 *11:34 *11:111 3.17625 
14 *11:111 *509:A 17.8438 
15 *11:111 *520:A1 1.96 
16 *11:24 *521:A 1.96 
17 *11:12 *532:A0 1.6 
*END

*D_NET *12 0.00376526
*CONN
*I *529:A I *D sky130_fd_sc_hd__nor4_1
*I *495:B1 I *D sky130_fd_sc_hd__a21oi_4
*I *613:A I *D sky130_fd_sc_hd__dlygate4sd3_1
*I *499:C1 I *D sky130_fd_sc_hd__a211oi_1
*I *604:Q O *D sky130_fd_sc_hd__dfxtp_1
*CAP
1 *529:A 0.000448127
2 *495:B1 3.19035e-05
3 *613:A 0
4 *499:C1 0.0002834
5 *604:Q 4.76858e-05
6 *12:34 0.000581934
7 *12:23 0.00019564
8 *12:8 0.000424821
9 *495:B1 *500:C 1.94805e-05
10 *495:B1 *511:B 7.4027e-05
11 *499:C1 *472:B 3.45888e-05
12 *499:C1 *500:D 0.000128487
13 *499:C1 *604:D 0.000160274
14 *499:C1 *81:26 0.000149364
15 *529:A *500:C 0.000123225
16 *529:A *508:B 7.83303e-05
17 *529:A *510:A 5.53839e-05
18 *529:A *513:A2_N 2.68526e-05
19 *529:A *45:67 0.000299952
20 *12:23 *511:B 9.18707e-05
21 *12:23 *513:B1 0.000122184
22 *12:23 *81:26 3.34653e-05
23 *12:34 *511:B 0.000112521
24 *12:34 *513:B1 0.000109612
25 *12:34 *79:10 0
26 *12:34 *81:26 4.05835e-05
27 *499:A1 *499:C1 4.49411e-05
28 *499:B1 *499:C1 4.66108e-05
29 *527:B1 *529:A 0
*RES
1 *604:Q *12:8 2.41 
2 *12:8 *499:C1 8.05 
3 *12:8 *12:23 2.52 
4 *12:23 *613:A 1.6 
5 *12:23 *12:34 4.52 
6 *12:34 *495:B1 4.47 
7 *12:34 *529:A 10.29 
*END

*D_NET *13 0.00314031
*CONN
*I *615:A I *D sky130_fd_sc_hd__dlygate4sd3_1
*I *478:A1 I *D sky130_fd_sc_hd__mux2_1
*I *494:A I *D sky130_fd_sc_hd__nand4_2
*I *605:Q O *D sky130_fd_sc_hd__dfxtp_1
*CAP
1 *615:A 0.000140561
2 *478:A1 2.34662e-05
3 *494:A 0.000192536
4 *605:Q 0
5 *13:12 0.000632399
6 *13:4 0.000556958
7 *478:A1 *493:B1 2.49909e-05
8 *494:A *493:B1 0.000161726
9 *494:A *494:B 0
10 *494:A *520:A2 0.00015639
11 *494:A *47:6 4.77719e-05
12 *615:A *537:A0 4.89395e-05
13 *615:A *605:D 0.000132644
14 *13:12 *513:B2 5.70755e-05
15 *13:12 *530:A2 0.00013521
16 *13:12 *537:A0 0.000132171
17 *13:12 *612:A 6.75539e-05
18 *13:12 *38:27 0.000202508
19 *13:12 *172:12 7.17811e-05
20 *13:12 *172:18 1.52184e-05
21 *491:A *494:A 8.49205e-05
22 *520:B1 *494:A 0.000204021
23 *527:B1 *13:12 5.14672e-05
*RES
1 *605:Q *13:4 1.6 
2 *13:4 *13:12 13.24 
3 *13:12 *494:A 6.895 
4 *13:12 *478:A1 2.05 
5 *13:4 *615:A 4.735 
*END

*D_NET *14 0.000904963
*CONN
*I *623:A I *D sky130_fd_sc_hd__dlygate4sd3_1
*I *492:A I *D sky130_fd_sc_hd__inv_2
*I *539:Q O *D sky130_fd_sc_hd__dfxtp_1
*CAP
1 *623:A 0.000114436
2 *492:A 8.39671e-05
3 *539:Q 0
4 *14:6 0.000198403
5 *492:A *478:A0 7.23602e-05
6 *492:A *530:A1 0
7 *492:A *626:A 8.53113e-06
8 *623:A *478:A0 9.50342e-06
9 *623:A *530:A1 0
10 *623:A *539:D 0.000141999
11 *623:A *626:A 0.000275764
*RES
1 *539:Q *14:6 3.6 
2 *14:6 *492:A 5.0925 
3 *14:6 *623:A 7.2 
*END

*D_NET *15 0.0015794
*CONN
*I *539:D I *D sky130_fd_sc_hd__dfxtp_1
*I *479:X O *D sky130_fd_sc_hd__clkbuf_1
*CAP
1 *539:D 0.00055047
2 *479:X 0.00055047
3 *539:D *530:A2 5.93534e-05
4 *539:D *626:A 2.39856e-05
5 *539:D *172:12 0.00025312
6 *623:A *539:D 0.000141999
*RES
1 *479:X *539:D 15.7388 
*END

*D_NET *16 0.000529505
*CONN
*I *616:A I *D sky130_fd_sc_hd__dlygate4sd3_1
*I *481:Y O *D sky130_fd_sc_hd__a21oi_1
*CAP
1 *616:A 8.9536e-05
2 *481:Y 8.9536e-05
3 *616:A *481:A1 9.42867e-05
4 *616:A *481:B1 0.000131525
5 *616:A *483:A 2.69153e-05
6 *616:A *485:A 3.54371e-05
7 *454:A *616:A 2.69153e-05
8 *10:49 *616:A 3.53536e-05
*RES
1 *481:Y *616:A 10.05 
*END

*D_NET *17 0.000294173
*CONN
*I *541:D I *D sky130_fd_sc_hd__dfxtp_1
*I *485:X O *D sky130_fd_sc_hd__clkbuf_1
*CAP
1 *541:D 9.50395e-05
2 *485:X 9.50395e-05
3 *541:D *483:B 0
4 *541:D *506:A3 0
5 *541:D *541:CLK 1.43717e-05
6 *541:D *42:10 8.97223e-05
*RES
1 *485:X *541:D 9.22875 
*END

*D_NET *18 0.00168664
*CONN
*I *618:A I *D sky130_fd_sc_hd__dlygate4sd3_1
*I *487:Y O *D sky130_fd_sc_hd__a21oi_1
*CAP
1 *618:A 0.000447543
2 *487:Y 0.000447543
3 *618:A *454:B 0.000170503
4 *618:A *480:C 8.23457e-05
5 *618:A *481:A1 7.59607e-05
6 *618:A *487:B1 5.90938e-05
7 *618:A *622:A 0.000233568
8 *618:A *109:20 0.000158577
9 *618:A *110:42 1.15104e-05
*RES
1 *487:Y *618:A 16.23 
*END

*D_NET *19 0.00113292
*CONN
*I *622:A I *D sky130_fd_sc_hd__dlygate4sd3_1
*I *488:Y O *D sky130_fd_sc_hd__a21boi_1
*CAP
1 *622:A 0.00020534
2 *488:Y 0.00020534
3 *622:A *452:A 0.000345913
4 *622:A *454:B 3.91152e-05
5 *622:A *488:A2 5.02217e-05
6 *622:A *488:B1_N 0
7 *622:A *627:A 1.7386e-05
8 *622:A *110:42 3.60359e-05
9 *618:A *622:A 0.000233568
*RES
1 *488:Y *622:A 12.69 
*END

*D_NET *20 0.00148336
*CONN
*I *544:D I *D sky130_fd_sc_hd__dfxtp_2
*I *498:X O *D sky130_fd_sc_hd__xor2_1
*CAP
1 *544:D 0.000278098
2 *498:X 0.000278098
3 *544:D *452:A 4.77719e-05
4 *544:D *453:A 4.89295e-05
5 *544:D *455:A 0.000122801
6 *544:D *456:A1 0.000174273
7 *544:D *511:B 8.48408e-05
8 *544:D *517:B1 7.53591e-05
9 *544:D *518:A1 2.34345e-05
10 *544:D *518:B2 0.000174369
11 *544:D *545:CLK 3.05396e-05
12 *544:D *53:18 0.000106858
13 *544:D *89:6 9.47267e-06
14 *544:D *104:32 2.85128e-05
*RES
1 *498:X *544:D 14.64 
*END

*D_NET *21 0.000945888
*CONN
*I *545:D I *D sky130_fd_sc_hd__dfxtp_2
*I *506:X O *D sky130_fd_sc_hd__a31o_1
*CAP
1 *545:D 0.000157114
2 *506:X 0.000157114
3 *545:D *504:A1 6.56448e-06
4 *545:D *504:A2 0.000111179
5 *545:D *506:A3 4.77807e-05
6 *545:D *506:B1 4.66108e-05